data_functionalizedCrystal
_audit_creation_method	'MofGen! by Chris Wilmer'
_symmetry_space_group_name_H-M	'P1'
_symmetry_Int_Tables_number	1
_symmetry_cell_setting	triclinic
loop_
_symmetry_equiv_pos_as_xyz
  x,y,z
_cell_length_a	16.793024
_cell_length_b	16.793047
_cell_length_c	33.586455
_cell_angle_alpha	113.253857
_cell_angle_beta	66.219990
_cell_angle_gamma	112.758327
loop_
_atom_site_label
_atom_site_type_symbol
_atom_site_fract_x
_atom_site_fract_y
_atom_site_fract_z
O1	O	0.005016	-0.570216	-0.583573
O2	O	-0.034529	-0.474528	-0.453458
O3	O	0.114723	-0.474535	-0.528082
O4	O	-0.144235	-0.570209	-0.508949
O5	O	0.108729	-0.346329	-0.530229
O6	O	-0.040523	-0.346322	-0.455605
O7	O	-0.000977	-0.442010	-0.585721
Zn8	Zn	-0.021701	-0.373810	-0.521004
Zn9	Zn	-0.013805	-0.542728	-0.518175
O10	O	-0.150229	-0.442003	-0.511097
C11	C	0.005100	-0.790970	-0.238461
C12	C	-0.040584	-0.395375	-0.435637
C13	C	-0.044693	-0.353446	-0.386631
C14	C	-0.039275	-0.401741	-0.363054
C15	C	-0.040566	-0.125547	-0.300731
C16	C	-0.044689	-0.223451	-0.321635
C17	C	-0.039266	-0.270752	-0.297563
C18	C	0.005118	-0.521142	-0.103554
C19	C	-0.046224	-0.263935	-0.366370
C20	C	-0.036476	-0.360146	-0.318399
C21	C	-0.030850	-0.408530	-0.294565
C22	C	-0.028014	-0.367522	-0.249895
C23	C	-0.030804	-0.278128	-0.229058
C24	C	-0.036430	-0.229743	-0.252892
C25	C	-0.027971	-0.237122	-0.184383
C26	C	-0.022345	-0.285507	-0.160550
C27	C	-0.019555	-0.374900	-0.181386
C28	C	-0.022391	-0.415909	-0.226057
C29	C	-0.019601	-0.505302	-0.246894
C30	C	-0.013975	-0.553687	-0.223060
C31	C	-0.011142	-0.512684	-0.178391
C32	C	-0.013932	-0.423291	-0.157554
C33	C	-0.005516	-0.561069	-0.154557
C34	C	-0.002726	-0.650463	-0.175394
C35	C	-0.005562	-0.691471	-0.220064
C36	C	-0.011185	-0.643081	-0.243897
C37	C	-0.022434	-0.546309	-0.291568
C38	C	-0.019644	-0.635702	-0.312405
C39	C	-0.014021	-0.684089	-0.288567
C40	C	-0.022480	-0.676711	-0.357076
C41	C	-0.028106	-0.628326	-0.380910
C42	C	-0.030896	-0.538933	-0.360073
C43	C	-0.028060	-0.497924	-0.315402
C44	C	-0.036522	-0.490548	-0.383907
C45	C	0.815184	-0.521162	-0.508596
C46	C	0.415541	-0.125553	-0.528781
C47	C	0.375032	-0.223457	-0.531493
C48	C	0.423813	-0.270761	-0.529101
C49	C	0.149318	-0.395376	-0.530584
C50	C	0.246774	-0.353455	-0.532364
C51	C	0.294574	-0.401748	-0.529976
C52	C	0.548961	-0.790984	-0.510398
C53	C	0.286104	-0.263940	-0.532530
C54	C	0.383336	-0.360149	-0.528302
C55	C	0.432207	-0.407971	-0.525810
C56	C	0.392316	-0.497392	-0.524993
C57	C	0.303554	-0.538991	-0.526667
C58	C	0.254683	-0.491169	-0.529159
C59	C	0.263666	-0.628421	-0.525851
C60	C	0.312537	-0.676243	-0.523359
C61	C	0.401299	-0.634644	-0.521685
C62	C	0.441190	-0.545223	-0.522502
C63	C	0.529952	-0.503624	-0.520828
C64	C	0.578823	-0.551446	-0.518336
C65	C	0.538939	-0.640864	-0.517520
C66	C	0.450177	-0.682463	-0.519194
C67	C	0.587810	-0.688687	-0.515028
C68	C	0.676572	-0.647088	-0.513354
C69	C	0.716463	-0.557666	-0.514172
C70	C	0.667586	-0.509847	-0.516662
C71	C	0.569840	-0.414195	-0.521644
C72	C	0.658602	-0.372596	-0.519970
C73	C	0.707476	-0.420426	-0.517480
C74	C	0.698493	-0.283174	-0.520788
C75	C	0.649622	-0.235352	-0.523280
C76	C	0.560860	-0.276951	-0.524954
C77	C	0.520969	-0.366372	-0.524136
C78	C	0.511989	-0.229129	-0.527446
C79	C	-0.040530	-0.395407	-0.935652
C80	C	0.005063	-0.791004	-0.738448
C81	C	0.009186	-0.693099	-0.717543
C82	C	0.003779	-0.645796	-0.741620
C83	C	0.005077	-0.521171	-0.603544
C84	C	0.009198	-0.563096	-0.652550
C85	C	0.003786	-0.514804	-0.676131
C86	C	-0.040516	-0.125574	-0.800747
C87	C	0.010719	-0.652613	-0.672809
C88	C	0.000994	-0.556406	-0.720789
C89	C	-0.004621	-0.508585	-0.744908
C90	C	-0.007444	-0.419162	-0.724369
C91	C	-0.004651	-0.377560	-0.679711
C92	C	0.000964	-0.425381	-0.655592
C93	C	-0.007471	-0.288129	-0.659174
C94	C	-0.013086	-0.240308	-0.683293
C95	C	-0.015878	-0.281910	-0.727951
C96	C	-0.013056	-0.371333	-0.748490
C97	C	-0.015848	-0.412935	-0.793148
C98	C	-0.021463	-0.365114	-0.817267
C99	C	-0.024282	-0.275694	-0.796731
C100	C	-0.021490	-0.234092	-0.752073
C101	C	-0.029897	-0.227873	-0.820850
C102	C	-0.032690	-0.269476	-0.865508
C103	C	-0.029867	-0.358899	-0.886047
C104	C	-0.024255	-0.406717	-0.861925
C105	C	-0.013028	-0.502367	-0.813685
C106	C	-0.015821	-0.543969	-0.858343
C107	C	-0.021433	-0.496140	-0.882464
C108	C	-0.012998	-0.633392	-0.878882
C109	C	-0.007383	-0.681213	-0.854763
C110	C	-0.004591	-0.639611	-0.810105
C111	C	-0.007414	-0.550188	-0.789566
C112	C	0.001024	-0.687432	-0.785986
O113	O	-0.000965	0.173549	-0.277957
O114	O	-0.040516	-0.085616	-0.325254
O115	O	0.108737	0.059592	-0.327284
O116	O	-0.150219	0.028341	-0.275927
O117	O	0.114753	0.055151	-0.263265
O118	O	-0.034500	-0.090057	-0.261234
O119	O	0.005051	0.169108	-0.213937
Zn120	Zn	-0.013769	0.038820	-0.227421
Zn121	Zn	-0.021696	0.044672	-0.311770
O122	O	-0.144202	0.023900	-0.211907
O123	O	-0.034458	-0.474571	0.046517
O124	O	0.005076	-0.570190	-0.083599
O125	O	-0.144170	-0.570237	-0.008972
O126	O	0.114787	-0.474523	-0.028110
O127	O	-0.150200	-0.442024	-0.011093
O128	O	-0.000954	-0.441976	-0.085720
O129	O	-0.040488	-0.346357	0.044396
Zn130	Zn	-0.021679	-0.373810	-0.020999
Zn131	Zn	-0.013734	-0.542737	-0.018204
O132	O	0.108757	-0.346309	-0.030231
C133	C	-0.850734	0.086244	-0.289716
C134	C	-0.450996	0.035117	-0.097351
C135	C	-0.410501	0.028587	-0.146852
C136	C	-0.459292	0.034683	-0.169840
C137	C	-0.184802	0.024283	-0.235878
C138	C	-0.282257	0.023363	-0.213592
C139	C	-0.330068	0.029423	-0.237088
C140	C	-0.584541	0.075410	-0.428242
C141	C	-0.321573	0.024104	-0.168302
C142	C	-0.418828	0.035176	-0.215083
C143	C	-0.467711	0.041476	-0.238329
C144	C	-0.427833	0.042022	-0.283580
C145	C	-0.339073	0.036269	-0.305586
C146	C	-0.290190	0.029970	-0.282340
C147	C	-0.299198	0.036812	-0.350842
C148	C	-0.348081	0.043111	-0.374088
C149	C	-0.436841	0.048864	-0.352082
C150	C	-0.476719	0.048318	-0.306830
C151	C	-0.565480	0.054071	-0.284825
C152	C	-0.614362	0.060370	-0.308071
C153	C	-0.574491	0.060913	-0.353321
C154	C	-0.485730	0.055160	-0.375326
C155	C	-0.623374	0.067212	-0.376567
C156	C	-0.712134	0.072965	-0.354561
C157	C	-0.752012	0.072419	-0.309309
C158	C	-0.703123	0.066123	-0.286065
C159	C	-0.605355	0.053528	-0.239569
C160	C	-0.694115	0.059281	-0.217564
C161	C	-0.743001	0.065577	-0.240813
C162	C	-0.733993	0.058735	-0.172312
C163	C	-0.685110	0.052436	-0.149066
C164	C	-0.596350	0.046683	-0.171072
C165	C	-0.556472	0.047229	-0.216323
C166	C	-0.547467	0.040383	-0.147826
O167	O	0.585213	0.169090	-0.504004
O168	O	0.494056	-0.090076	-0.525516
O169	O	0.488081	0.055124	-0.449918
O170	O	0.591189	0.023889	-0.579602
O171	O	0.359978	0.059584	-0.452885
O172	O	0.365953	-0.085616	-0.528483
O173	O	0.457110	0.173550	-0.506971
Zn174	Zn	0.391193	0.044675	-0.518198
Zn175	Zn	0.559974	0.038798	-0.514289
O176	O	0.463086	0.028349	-0.582569
C177	C	0.815354	-0.521094	-0.008709
C178	C	0.415547	-0.125494	-0.028771
C179	C	0.375059	-0.223405	-0.031498
C180	C	0.423859	-0.270708	-0.029121
C181	C	0.149365	-0.395355	-0.030599
C182	C	0.246820	-0.353421	-0.032381
C183	C	0.294640	-0.401713	-0.030008
C184	C	0.549171	-0.790955	-0.010537
C185	C	0.286131	-0.263897	-0.032533
C186	C	0.383402	-0.360104	-0.028335
C187	C	0.432293	-0.407926	-0.025859
C188	C	0.392422	-0.497356	-0.025055
C189	C	0.303660	-0.538965	-0.026727
C190	C	0.254769	-0.491143	-0.029204
C191	C	0.263791	-0.628403	-0.025925
C192	C	0.312683	-0.676224	-0.023448
C193	C	0.401445	-0.634615	-0.021775
C194	C	0.441316	-0.545185	-0.022579
C195	C	0.530078	-0.503576	-0.020906
C196	C	0.578969	-0.551398	-0.018429
C197	C	0.539104	-0.640825	-0.017627
C198	C	0.450342	-0.682434	-0.019300
C199	C	0.587995	-0.688646	-0.015150
C200	C	0.676757	-0.647037	-0.013477
C201	C	0.716628	-0.557607	-0.014281
C202	C	0.667731	-0.509789	-0.016757
C203	C	0.569946	-0.414138	-0.021709
C204	C	0.658708	-0.372530	-0.020036
C205	C	0.707602	-0.420359	-0.017561
C206	C	0.698579	-0.283100	-0.020840
C207	C	0.649688	-0.235278	-0.023317
C208	C	0.560926	-0.276887	-0.024990
C209	C	0.521055	-0.366317	-0.024186
C210	C	0.512035	-0.229066	-0.027467
O211	O	-0.620614	0.089309	0.052274
O212	O	-0.529507	0.043784	-0.078544
O213	O	-0.523494	0.194833	-0.006033
O214	O	-0.626628	-0.061740	-0.020236
O215	O	-0.395386	0.185419	-0.005549
O216	O	-0.401400	0.034370	-0.078059
O217	O	-0.492507	0.079895	0.052758
Zn218	Zn	-0.426614	0.055638	-0.012574
Zn219	Zn	-0.595401	0.068041	-0.013212
O220	O	-0.498521	-0.071154	-0.019752
C221	C	-0.437537	0.048335	0.402491
C222	C	-0.837226	0.099430	0.210091
C223	C	-0.739773	0.100339	0.187806
C224	C	-0.691967	0.094287	0.211308
C225	C	-0.571027	0.088563	0.071568
C226	C	-0.611521	0.095108	0.121070
C227	C	-0.562739	0.089011	0.144061
C228	C	-0.171338	0.037467	0.263967
C229	C	-0.700452	0.099593	0.142516
C230	C	-0.603213	0.088528	0.189308
C231	C	-0.554892	0.082255	0.212848
C232	C	-0.466098	0.076466	0.191141
C233	C	-0.425624	0.076949	0.145894
C234	C	-0.473945	0.083222	0.122354
C235	C	-0.336822	0.071163	0.124188
C236	C	-0.288502	0.064890	0.147728
C237	C	-0.328975	0.064407	0.192975
C238	C	-0.417770	0.070196	0.214682
C239	C	-0.458244	0.069713	0.259929
C240	C	-0.409923	0.063441	0.283469
C241	C	-0.321132	0.057655	0.261765
C242	C	-0.280658	0.058138	0.216518
C243	C	-0.272811	0.051382	0.285305
C244	C	-0.313285	0.050899	0.330552
C245	C	-0.402079	0.056688	0.352259
C246	C	-0.450397	0.062957	0.328716
C247	C	-0.547046	0.075500	0.281635
C248	C	-0.587520	0.075016	0.326882
C249	C	-0.539191	0.068747	0.350423
C250	C	-0.676314	0.080806	0.348589
C251	C	-0.724634	0.087078	0.325049
C252	C	-0.684160	0.087561	0.279802
C253	C	-0.595366	0.081772	0.258095
C254	C	-0.732481	0.093834	0.256262
O255	O	-0.040608	-1.085661	-0.825229
O256	O	-0.001018	-0.826491	-0.777938
O257	O	-0.150287	-0.971682	-0.775894
O258	O	0.108661	-0.940470	-0.827272
O259	O	-0.144253	-0.976123	-0.711878
O260	O	0.005016	-0.830932	-0.713922
O261	O	-0.034575	-1.090102	-0.761213
Zn262	Zn	-0.013821	-0.961222	-0.727403
Zn263	Zn	-0.021771	-0.955371	-0.811747
O264	O	0.114695	-0.944911	-0.763256
C265	C	-0.049782	-0.210022	-0.393277
H266	H	-0.050459	-0.247401	-0.423059
H267	H	0.001854	-0.159587	-0.394913
H268	H	-0.102951	-0.189830	-0.378461
C269	C	-0.721012	0.080276	0.398565
H270	H	-0.679344	0.075697	0.409521
H271	H	-0.773027	0.030329	0.400864
H272	H	-0.738228	0.134487	0.416145
H273	H	-0.815575	0.070280	-0.222817
H274	H	0.182201	-0.525171	-0.030575
H275	H	-0.580066	0.039960	-0.110823
H276	H	0.012418	-0.684570	-0.156900
H277	H	0.710767	-0.684484	-0.506030
C278	C	0.796619	-0.237142	-0.018993
H279	H	0.813430	-0.176783	-0.019827
H280	H	0.835846	-0.268888	-0.044276
H281	H	0.801057	-0.237389	0.008273
H282	H	0.780052	-0.386407	-0.516111
C283	C	-0.729148	0.051839	-0.099083
H284	H	-0.687148	0.047251	-0.088345
H285	H	-0.781123	0.001877	-0.096674
H286	H	-0.746327	0.106035	-0.081392
C287	C	0.406298	-0.781213	-0.018413
H288	H	0.346189	-0.799221	-0.019773
H289	H	0.405377	-0.786935	0.008811
H290	H	0.440157	-0.818427	-0.043739
C291	C	0.004121	-0.786209	-0.808665
H292	H	0.001645	-0.804213	-0.838840
H293	H	-0.046021	-0.823423	-0.791983
H294	H	0.058659	-0.791925	-0.809171
C295	C	0.693719	-0.136499	-0.024203
H296	H	0.651715	-0.113883	-0.025922
H297	H	0.745691	-0.133081	-0.049889
H298	H	0.710904	-0.101588	0.002661
H299	H	0.771070	-0.249160	-0.519423
C300	C	-0.004279	-0.779988	-0.877445
H301	H	-0.006755	-0.797989	-0.907620
H302	H	-0.054418	-0.817207	-0.860765
H303	H	0.050262	-0.785698	-0.877951
H304	H	0.245737	-0.223998	-0.033572
C305	C	-0.441683	0.055749	-0.425311
H306	H	-0.381577	0.051392	-0.435129
H307	H	-0.440753	0.110178	-0.428183
H308	H	-0.475546	0.006019	-0.443459
H309	H	0.544602	-0.156012	-0.528109
H310	H	-0.746339	0.088530	-0.372795
H311	H	0.191099	-0.662437	-0.527221
H312	H	-0.038719	-0.156659	-0.235851
C313	C	0.165717	-0.674323	-0.027711
H314	H	0.148894	-0.734668	-0.026854
H315	H	0.161172	-0.674101	-0.054955
H316	H	0.126563	-0.642527	-0.002402
C317	C	0.722987	-0.697553	-0.003605
H318	H	0.782777	-0.662081	-0.003404
H319	H	0.724981	-0.753294	-0.026446
H320	H	0.689727	-0.708433	0.025133
H321	H	0.544632	-0.155941	-0.028119
C322	C	-0.830564	0.100208	0.280233
H323	H	-0.847821	0.099019	0.310677
H324	H	-0.869573	0.050695	0.264764
H325	H	-0.834803	0.154854	0.280053
H326	H	0.780178	-0.386331	-0.016193
H327	H	-0.030255	-0.164038	-0.167345
C328	C	-0.024583	-0.135314	-0.729388
H329	H	-0.022092	-0.117308	-0.699216
H330	H	-0.079112	-0.129587	-0.728884
H331	H	0.025569	-0.098101	-0.746072
C332	C	-0.052973	-0.218890	-0.888303
H333	H	-0.061404	-0.162629	-0.867542
H334	H	-0.106285	-0.253779	-0.897082
H335	H	-0.003681	-0.209018	-0.914354
C336	C	-0.754991	0.103887	0.116294
H337	H	-0.718355	0.102874	0.086021
H338	H	-0.773479	0.157862	0.130667
H339	H	-0.806783	0.053556	0.116010
C340	C	0.268646	-0.775001	-0.022564
H341	H	0.208537	-0.793009	-0.023924
H342	H	0.267726	-0.780723	0.004661
H343	H	0.302505	-0.812214	-0.047890
H344	H	0.682238	-0.162236	-0.523943
H345	H	-0.440845	0.083623	0.085362
H346	H	-0.030422	-0.661858	-0.417434
H347	H	-0.303725	0.071562	0.087197
C348	C	-0.262704	0.029705	0.352911
H349	H	-0.207252	0.019160	0.331504
H350	H	-0.298869	-0.022392	0.362873
H351	H	-0.250771	0.079286	0.378148
H352	H	-0.806568	0.063430	-0.154318
H353	H	-0.020209	-0.749804	-0.374113
C354	C	-0.190427	0.058504	0.123753
H355	H	-0.173169	0.059701	0.093311
H356	H	-0.186193	0.003862	0.123937
H357	H	-0.151408	0.108021	0.139219
H358	H	-0.023718	-0.530163	-0.918978
H359	H	-0.208057	0.053400	0.198770
H360	H	0.013347	-0.692513	-0.652885
C361	C	-0.822714	0.093460	0.349022
H362	H	-0.839969	0.092271	0.379466
H363	H	-0.861729	0.043950	0.333555
H364	H	-0.826949	0.148108	0.348842
H365	H	-0.217624	0.025258	-0.300336
H366	H	-0.020027	-0.251971	-0.124027
H367	H	-0.011621	-0.389765	-0.121028
H368	H	0.003251	-0.391359	-0.619081
C369	C	-0.004390	-0.242180	-0.609850
H370	H	-0.006890	-0.181828	-0.601037
H371	H	0.050144	-0.242419	-0.607630
H372	H	-0.054536	-0.273938	-0.590452
H373	H	-0.015393	-0.167196	-0.666497
H374	H	-0.038841	-0.524079	-0.420431
C375	C	-0.010957	-0.782833	-0.311580
H376	H	-0.013462	-0.800401	-0.341721
H377	H	-0.061095	-0.820258	-0.295014
H378	H	0.043584	-0.788753	-0.312206
C379	C	0.231561	-0.210028	-0.533945
H380	H	0.172531	-0.247443	-0.534588
H381	H	0.260982	-0.189719	-0.560356
H382	H	0.227506	-0.159667	-0.507754
C383	C	-0.201164	0.030461	-0.375146
H384	H	-0.184348	0.031700	-0.405549
H385	H	-0.196720	-0.024188	-0.375087
H386	H	-0.161939	0.079970	-0.359800
H387	H	-0.015274	-0.667410	-0.915397
H388	H	-0.572284	0.068372	0.387422
C389	C	-0.267019	0.019804	-0.142089
H390	H	-0.207992	0.016916	-0.161598
H391	H	-0.296437	-0.032220	-0.131534
H392	H	-0.262957	0.072080	-0.116965
H393	H	0.182115	-0.525189	-0.530531
C394	C	0.406111	-0.781233	-0.518293
H395	H	0.346005	-0.799235	-0.519656
H396	H	0.405180	-0.786940	-0.491062
H397	H	0.439964	-0.818462	-0.543612
C398	C	0.268479	-0.775010	-0.522459
H399	H	0.208372	-0.793012	-0.523822
H400	H	0.267548	-0.780717	-0.495229
H401	H	0.302332	-0.812238	-0.547779
C402	C	-0.304037	0.043705	-0.424069
H403	H	-0.243930	0.039352	-0.433887
H404	H	-0.303110	0.098137	-0.426937
H405	H	-0.337897	-0.006021	-0.442220
