data_functionalizedCrystal
_audit_creation_method	'MofGen! by Chris Wilmer'
_symmetry_space_group_name_H-M	'P1'
_symmetry_Int_Tables_number	1
_symmetry_cell_setting	triclinic
loop_
_symmetry_equiv_pos_as_xyz
  x,y,z
_cell_length_a	11.792241
_cell_length_b	19.188930
_cell_length_c	10.868271
_cell_angle_alpha	89.989749
_cell_angle_beta	89.999893
_cell_angle_gamma	83.669099
loop_
_atom_site_label
_atom_site_type_symbol
_atom_site_fract_x
_atom_site_fract_y
_atom_site_fract_z
O1	O	1.505476	0.095695	-0.102218
O2	O	1.174987	0.105557	-0.102248
O3	O	1.349769	-0.000975	-0.102208
O4	O	1.330695	0.202228	-0.102258
O5	O	1.349755	-0.000980	0.102437
O6	O	1.174973	0.105553	0.102396
O7	O	1.505462	0.095691	0.102427
Zn8	Zn	1.340215	0.100621	0.134903
Zn9	Zn	1.340234	0.100627	-0.134725
O10	O	1.330680	0.202224	0.102387
C11	C	1.132699	0.104936	0.000071
C12	C	1.006713	0.103082	0.000060
C13	C	0.776051	0.099672	0.000096
C14	C	0.904408	0.101566	0.000076
C15	C	1.349144	-0.026992	0.000118
C16	C	1.347290	-0.104507	0.000128
C17	C	1.449846	-0.148850	0.000143
C18	C	1.448104	-0.221684	0.000123
C19	C	1.343800	-0.250171	0.000113
C20	C	1.241230	-0.205818	0.000091
C21	C	1.242975	-0.132986	0.000098
N22	N	1.264067	-0.358629	0.069750
N23	N	1.262417	-0.427817	0.069746
C24	C	1.338536	-0.469609	0.000088
N25	N	1.416386	-0.439602	-0.069550
N26	N	1.418040	-0.370408	-0.069540
C27	C	1.341896	-0.329144	0.000104
C28	C	1.439211	-0.592928	0.000080
C29	C	1.437464	-0.665762	0.000052
C30	C	1.230588	-0.649895	0.000032
C31	C	1.232337	-0.577062	0.000047
C32	C	1.336652	-0.548583	0.000077
C33	C	1.547751	0.096313	0.000105
C34	C	1.673737	0.098167	0.000108
C35	C	1.331305	0.228240	0.000058
C36	C	1.333159	0.305755	0.000040
N37	N	1.340211	0.100617	0.318917
N38	N	1.340248	0.100626	-0.318739
C39	C	1.340228	0.100625	0.569923
C40	C	1.340215	0.100623	0.430246
H41	H	1.534787	-0.125667	0.000163
H42	H	1.156305	-0.229017	0.000080
H43	H	1.148825	-0.540957	0.000042
O44	O	1.540509	-0.565226	0.000310
C45	C	1.547698	-0.523575	0.106289
H46	H	1.488473	-0.541032	0.180363
H47	H	1.521236	-0.466242	0.082336
C48	C	1.744040	-0.510503	0.063374
C49	C	1.671306	-0.531948	0.154356
H50	H	1.820287	-0.515664	0.093022
H51	H	1.739196	-0.538562	-0.008029
H52	H	1.721974	-0.462726	0.043421
H53	H	1.693363	-0.579726	0.174296
H54	H	1.676156	-0.503897	0.225764
O55	O	1.537198	-0.708740	0.000120
C56	C	1.629635	-0.667981	0.000119
H57	H	1.600549	-0.613744	0.038867
H58	H	1.661641	-0.662659	-0.098051
C59	C	1.762387	-0.770527	0.032799
C60	C	1.726665	-0.703914	0.080399
H61	H	1.822242	-0.792693	0.082314
H62	H	1.700111	-0.797988	0.032795
H63	H	1.789051	-0.766083	-0.049009
H64	H	1.699989	-0.708360	0.162199
H65	H	1.788939	-0.676455	0.080418
H66	H	1.145661	-0.673089	0.000017
O67	O	1.547836	-0.264669	0.000197
C68	C	1.640278	-0.223914	0.000188
H69	H	1.611199	-0.169675	0.038928
H70	H	1.672285	-0.218599	-0.097983
C71	C	1.773020	-0.326464	0.032881
C72	C	1.737306	-0.259847	0.080471
H73	H	1.832874	-0.348629	0.082398
H74	H	1.710740	-0.353921	0.032882
H75	H	1.799684	-0.322024	-0.048928
H76	H	1.710629	-0.264288	0.162272
H77	H	1.799583	-0.232391	0.080486
O78	O	1.143243	-0.090007	0.000145
C79	C	1.050803	-0.130764	0.000093
H80	H	1.079876	-0.185014	0.038829
H81	H	1.018823	-0.136055	-0.098091
C82	C	0.918047	-0.028227	0.032764
C83	C	0.953753	-0.094855	0.080350
H84	H	0.858179	-0.006075	0.082265
H85	H	0.980325	-0.000767	0.032794
H86	H	0.891405	-0.032645	-0.049056
H87	H	0.980408	-0.090436	0.162162
H88	H	0.891478	-0.122313	0.080336
