data_functionalizedCrystal
_audit_creation_method	'MofGen! by Chris Wilmer'
_symmetry_space_group_name_H-M	'P1'
_symmetry_Int_Tables_number	1
_symmetry_cell_setting	triclinic
loop_
_symmetry_equiv_pos_as_xyz
  x,y,z
_cell_length_a	17.699083
_cell_length_b	27.732048
_cell_length_c	16.776229
_cell_angle_alpha	89.988391
_cell_angle_beta	89.998886
_cell_angle_gamma	82.962835
loop_
_atom_site_label
_atom_site_type_symbol
_atom_site_fract_x
_atom_site_fract_y
_atom_site_fract_z
O1	O	1.003540	0.061127	-0.066185
O2	O	1.503540	0.561127	0.433815
O3	O	0.783091	0.069080	-0.066212
O4	O	1.283091	0.569080	0.433788
O5	O	0.900162	-0.005269	-0.066183
O6	O	1.400162	0.494731	0.433817
O7	O	0.886469	0.135475	-0.066215
O8	O	1.386469	0.635475	0.433785
O9	O	0.900147	-0.005273	0.066394
O10	O	1.400147	0.494727	0.566394
O11	O	0.783076	0.069075	0.066364
O12	O	1.283076	0.569075	0.566364
O13	O	1.003524	0.061122	0.066391
O14	O	1.503524	0.561122	0.566391
Zn15	Zn	0.893298	0.065098	0.087427
Zn16	Zn	1.393298	0.565098	0.587427
Zn17	Zn	0.893318	0.065104	-0.087248
Zn18	Zn	1.393318	0.565104	0.412752
O19	O	0.886453	0.135471	0.066362
O20	O	1.386453	0.635471	0.566362
C21	C	0.754889	0.068792	0.000073
C22	C	1.254889	0.568792	0.500073
C23	C	0.670878	0.067938	0.000063
C24	C	1.170878	0.567938	0.500063
C25	C	0.621873	0.111579	0.000053
C26	C	1.121873	0.611579	0.500053
C27	C	0.542936	0.110772	0.000064
C28	C	1.042936	0.610772	0.500064
C29	C	0.513007	0.066325	0.000078
C30	C	1.013007	0.566325	0.500078
C31	C	0.562019	0.022680	0.000090
C32	C	1.062019	0.522680	0.500090
C33	C	0.640954	0.023487	0.000085
C34	C	1.140954	0.523487	0.500085
C35	C	0.243685	0.019426	0.000111
C36	C	0.743685	0.519426	0.500111
C37	C	0.164744	0.018623	0.000113
C38	C	0.664744	0.518623	0.500113
C39	C	0.145667	0.106712	0.000089
C40	C	0.645667	0.606712	0.500089
C41	C	0.224602	0.107518	0.000084
C42	C	0.724602	0.607518	0.500084
C43	C	0.273607	0.063874	0.000100
C44	C	0.773607	0.563874	0.500100
C45	C	0.359199	0.064749	0.000090
C46	C	0.859199	0.564749	0.500090
C47	C	0.427418	0.065450	0.000082
C48	C	0.927418	0.565450	0.500082
C49	C	0.899867	-0.023279	0.000108
C50	C	1.399867	0.476721	0.500108
C51	C	0.899001	-0.076937	0.000114
C52	C	1.399001	0.423063	0.500114
C53	C	0.962734	-0.415523	0.000081
C54	C	1.462734	0.084477	0.500081
C55	C	0.959522	-0.617194	0.000070
C56	C	1.459522	-0.117194	0.500070
O57	O	1.017801	-0.648240	0.000042
O58	O	1.517801	-0.148240	0.500042
N59	N	0.890104	-0.636567	0.000062
N60	N	1.390104	-0.136567	0.500062
C61	C	0.821484	-0.605520	0.000051
C62	C	1.321484	-0.105520	0.500051
O63	O	0.762366	-0.626625	0.000036
O64	O	1.262366	-0.126625	0.500036
C65	C	0.824696	-0.403849	0.000057
C66	C	1.324696	0.096151	0.500057
C67	C	0.894119	-0.384479	0.000073
C68	C	1.394119	0.115521	0.500073
C69	C	1.032151	-0.396152	0.000096
C70	C	1.532151	0.103848	0.500096
C71	C	1.032953	-0.345737	0.000103
C72	C	1.532953	0.154263	0.500103
C73	C	0.964338	-0.314693	0.000095
C74	C	1.464338	0.185307	0.500095
C75	C	0.894921	-0.334064	0.000080
C76	C	1.394921	0.165936	0.500080
C77	C	0.756076	-0.372802	0.000041
C78	C	1.256076	0.127198	0.500041
C79	C	0.756886	-0.322382	0.000041
C80	C	1.256886	0.177618	0.500041
C81	C	0.826308	-0.303012	0.000057
C82	C	1.326308	0.196988	0.500057
C83	C	0.827108	-0.252605	0.000080
C84	C	1.327108	0.247395	0.500080
N85	N	0.896526	-0.233232	0.000088
N86	N	1.396526	0.266768	0.500088
C87	C	0.965141	-0.264276	0.000095
C88	C	1.465141	0.235724	0.500095
C89	C	0.819802	-0.711400	0.000050
C90	C	1.319802	-0.211400	0.500050
C91	C	0.818999	-0.761817	0.000050
C92	C	1.318999	-0.261817	0.500050
C93	C	0.957038	-0.773488	0.000067
C94	C	1.457038	-0.273488	0.500067
C95	C	0.957840	-0.723070	0.000072
C96	C	1.457840	-0.223070	0.500072
C97	C	0.889220	-0.692026	0.000058
C98	C	1.389220	-0.192026	0.500058
C99	C	0.966820	-0.158401	0.000111
C100	C	1.466820	0.341599	0.500111
C101	C	0.967616	-0.107981	0.000122
C102	C	1.467616	0.392019	0.500122
C103	C	0.829578	-0.096314	0.000101
C104	C	1.329578	0.403686	0.500101
C105	C	0.828781	-0.146730	0.000095
C106	C	1.328781	0.353270	0.500095
C107	C	0.897409	-0.177772	0.000097
C108	C	1.397409	0.322228	0.500097
O109	O	0.768860	-0.221531	0.000099
O110	O	1.268860	0.278469	0.500099
O111	O	1.024251	-0.243161	0.000093
O112	O	1.524251	0.256839	0.500093
C113	C	0.961931	-0.465938	0.000074
C114	C	1.461931	0.034062	0.500074
C115	C	0.892514	-0.485309	0.000059
C116	C	1.392514	0.014691	0.500059
C117	C	0.823899	-0.454265	0.000051
C118	C	1.323899	0.045735	0.500051
C119	C	0.891711	-0.535726	0.000059
C120	C	1.391711	-0.035726	0.500059
C121	C	0.960326	-0.566770	0.000067
C122	C	1.460326	-0.066770	0.500067
C123	C	1.029744	-0.547397	0.000074
C124	C	1.529744	-0.047397	0.500074
C125	C	1.030546	-0.496982	0.000082
C126	C	1.530546	0.003018	0.500082
C127	C	0.754481	-0.473638	0.000043
C128	C	1.254481	0.026362	0.500043
C129	C	0.753685	-0.524053	0.000037
C130	C	1.253685	-0.024053	0.500037
C131	C	0.822300	-0.555097	0.000045
C132	C	1.322300	-0.055097	0.500045
C133	C	1.031726	0.061410	0.000105
C134	C	1.531726	0.561410	0.500105
C135	C	1.115737	0.062264	0.000109
C136	C	1.615737	0.562264	0.500109
C137	C	0.886748	0.153481	0.000069
C138	C	1.386748	0.653481	0.500069
C139	C	0.887614	0.207139	0.000058
C140	C	1.387614	0.707139	0.500058
N141	N	0.893289	0.065094	0.206638
N142	N	1.393289	0.565094	0.706638
N143	N	0.893332	0.065105	-0.206459
N144	N	1.393332	0.565105	0.293541
C145	C	0.945144	0.032186	0.248368
C146	C	1.445144	0.532186	0.748368
C147	C	0.945148	0.032185	0.331821
C148	C	1.445148	0.532185	0.831821
C149	C	0.893301	0.065095	0.373541
C150	C	1.393301	0.565095	0.873541
C151	C	0.841441	0.098005	0.331805
C152	C	1.341441	0.598005	0.831805
C153	C	0.841433	0.098003	0.248354
C154	C	1.341433	0.598003	0.748354
C155	C	0.841468	0.098015	0.668352
C156	C	1.341468	0.598015	1.168352
C157	C	0.841481	0.098015	0.751809
C158	C	1.341481	0.598015	1.251809
C159	C	0.945182	0.032197	0.751819
C160	C	1.445182	0.532197	1.251819
C161	C	0.945175	0.032195	0.668368
C162	C	1.445175	0.532195	1.168368
C163	C	0.893313	0.065102	0.626639
C164	C	1.393313	0.565102	1.126639
C165	C	0.893308	0.065102	0.536151
C166	C	1.393308	0.565102	1.036151
C167	C	0.893309	0.065099	0.464028
C168	C	1.393309	0.565099	0.964028
H169	H	0.537645	-0.013510	0.000113
H170	H	1.037645	0.486490	0.500113
H171	H	0.503039	0.146309	0.000055
H172	H	1.003039	0.646309	0.500055
F173	F	0.256450	0.154825	0.000064
F174	F	0.756450	0.654825	0.500064
H175	H	1.087078	-0.481215	0.000094
H176	H	1.587078	0.018785	0.500094
F177	F	0.786275	0.133038	0.623948
F178	F	1.286275	0.633038	1.123948
F179	F	0.679790	-0.544663	0.000025
F180	F	1.179790	-0.044663	0.500025
F181	F	1.000336	-0.002840	0.376233
F182	F	1.500336	0.497160	0.876233
H183	H	0.105758	0.142249	0.000080
H184	H	0.605758	0.642249	0.500080
H185	H	0.646234	0.147773	0.000041
H186	H	1.146234	0.647773	0.500041
H187	H	1.089484	-0.329971	0.000113
H188	H	1.589484	0.170029	0.500113
F189	F	0.786256	0.133029	0.376208
F190	F	1.286256	0.633029	0.876208
F191	F	1.031728	-0.702459	0.000089
F192	F	1.531728	-0.202459	0.500089
H193	H	1.088028	-0.421424	0.000099
H194	H	1.588028	0.078576	0.500099
F195	F	1.030063	-0.806536	0.000073
F196	F	1.530063	-0.306536	0.500073
H197	H	0.680855	-0.012050	0.000093
H198	H	1.180855	0.487950	0.500093
F199	F	1.000360	-0.002831	0.623969
F200	F	1.500360	0.497169	1.123969
F201	F	1.041509	-0.087369	0.000138
F202	F	1.541509	0.412631	0.500138
F203	F	0.745110	-0.782427	0.000047
F204	F	1.245110	-0.282427	0.500047
F205	F	1.102769	-0.580445	0.000087
F206	F	1.602769	-0.080445	0.500087
F207	F	0.132894	-0.028687	0.000129
F208	F	0.632894	0.471313	0.500129
F209	F	0.295830	-0.027024	0.000128
F210	F	0.795830	0.472976	0.500128
F211	F	0.786294	0.133044	0.796209
F212	F	1.286294	0.633044	1.296209
F213	F	1.039861	-0.191432	0.000114
F214	F	1.539861	0.308568	0.500114
F215	F	0.746762	-0.678366	0.000034
F216	F	1.246762	-0.178366	0.500034
F217	F	0.682186	-0.393407	0.000021
F218	F	1.182186	0.106593	0.500021
F219	F	0.754895	-0.167346	0.000092
F220	F	1.254895	0.332654	0.500092
H221	H	0.701006	-0.297108	0.000028
H222	H	1.201006	0.202892	0.500028
H223	H	0.773714	-0.071029	0.000098
H224	H	1.273714	0.428971	0.500098
H225	H	0.698605	-0.448366	0.000035
H226	H	1.198605	0.051634	0.500035
F227	F	1.000377	-0.002828	0.796235
F228	F	1.500377	0.497172	1.296235
H229	H	0.987367	0.005388	0.214405
H230	H	1.487367	0.505388	0.714405
H231	H	0.799207	0.124799	0.214378
H232	H	1.299207	0.624799	0.714378
