data_functionalizedCrystal
_audit_creation_method	'MofGen! by Chris Wilmer'
_symmetry_space_group_name_H-M	'P1'
_symmetry_Int_Tables_number	1
_symmetry_cell_setting	triclinic
loop_
_symmetry_equiv_pos_as_xyz
  x,y,z
_cell_length_a	18.101398
_cell_length_b	18.101395
_cell_length_c	18.101389
_cell_angle_alpha	89.983159
_cell_angle_beta	90.024327
_cell_angle_gamma	89.973629
loop_
_atom_site_label
_atom_site_type_symbol
_atom_site_fract_x
_atom_site_fract_y
_atom_site_fract_z
Zn1	Zn	1.132121	0.295001	0.418847
Zn2	Zn	1.132017	0.418826	0.295009
Zn3	Zn	1.008280	0.294993	0.295008
Zn4	Zn	1.008231	0.418795	0.418797
O5	O	1.070162	0.356904	0.356915
O6	O	1.235740	0.311443	0.402440
O7	O	1.115580	0.402410	0.191376
O8	O	1.024772	0.191361	0.311456
O9	O	1.235664	0.402417	0.311457
O10	O	1.115757	0.191367	0.402440
O11	O	1.024671	0.311430	0.191375
O12	O	0.904641	0.311399	0.311408
O13	O	1.024688	0.402363	0.522437
O14	O	0.904604	0.402356	0.402355
O15	O	1.115710	0.311412	0.522473
O16	O	1.115532	0.522455	0.311409
O17	O	1.024587	0.522432	0.402356
C18	C	0.877752	0.356874	0.356877
C19	C	0.795437	0.356879	0.356878
C20	C	1.070063	0.549314	0.356893
C21	C	1.070088	0.631628	0.356909
C22	C	0.496347	0.356925	0.356940
C23	C	0.527670	0.299412	0.299997
C24	C	0.613288	0.299566	0.299754
C25	C	0.644729	0.356901	0.356909
C26	C	0.613611	0.434909	0.335587
C27	C	0.527966	0.434590	0.335191
C28	C	0.527961	0.337109	0.435339
C29	C	0.613612	0.335371	0.434911
C30	C	0.728589	0.356893	0.356893
C31	C	0.412487	0.356939	0.356954
C32	C	1.070205	0.356885	0.550077
C33	C	1.070223	0.356877	0.632391
C34	C	1.263324	0.356934	0.356954
C35	C	1.345638	0.356948	0.356971
C36	C	1.070282	0.163742	0.356953
C37	C	1.070333	0.081428	0.356970
C38	C	1.070251	0.930719	0.356949
C39	C	1.013163	0.899410	0.414312
C40	C	1.012892	0.813792	0.414133
C41	C	1.070170	0.782337	0.356930
C42	C	1.049041	0.813472	0.278878
C43	C	1.048673	0.899117	0.279221
C44	C	1.148593	0.899073	0.376950
C45	C	1.148132	0.813422	0.378661
C46	C	1.070126	0.698477	0.356914
C47	C	1.070293	1.014579	0.356959
C48	C	1.070162	0.356869	0.164505
C49	C	1.070287	0.356668	0.082191
C50	C	1.070266	0.356738	0.931482
C51	C	1.012801	0.413780	0.900134
C52	C	1.012956	0.414045	0.814516
C53	C	1.070244	0.356807	0.783100
C54	C	1.148270	0.377998	0.814206
C55	C	1.147949	0.378372	0.899851
C56	C	1.050385	0.278379	0.899905
C57	C	1.048649	0.278832	0.814254
C58	C	1.070237	0.356845	0.699240
C59	C	1.070279	0.356702	1.015342
H60	H	0.634329	0.241719	0.313119
N61	N	0.640593	0.493197	0.388794
H62	H	0.619914	0.542889	0.374029
H63	H	0.623597	0.480534	0.440400
N64	N	0.500502	0.493279	0.387716
H65	H	0.469521	0.469565	0.427589
H66	H	0.544070	0.519228	0.410974
H67	H	0.994478	0.259074	0.921490
N68	N	0.641967	0.457551	0.260483
H69	H	0.598887	0.465485	0.225898
H70	H	0.671059	0.504920	0.265127
N71	N	1.030338	0.490979	0.787378
H72	H	1.037937	0.524852	0.831051
H73	H	1.076778	0.489715	0.756498
H74	H	0.507099	0.241388	0.313215
N75	N	1.206512	0.324692	0.787270
H76	H	1.182822	0.286203	0.754563
H77	H	1.245159	0.352541	0.758247
N78	N	1.101343	0.926546	0.220658
H79	H	1.073439	0.957503	0.183528
H80	H	1.141168	0.957477	0.244522
N81	N	0.972594	0.257658	0.787317
H82	H	0.975787	0.210436	0.757780
H83	H	0.938874	0.249992	0.831088
H84	H	0.954768	0.400655	0.920720
N85	N	1.030395	0.785903	0.490794
H86	H	0.987879	0.755030	0.509529
H87	H	1.076689	0.754784	0.489152
N88	N	1.206597	0.325745	0.927328
H89	H	1.206848	0.325579	0.983124
H90	H	1.195664	0.274340	0.908615
H91	H	1.164065	0.793071	0.436103
H92	H	0.633956	0.277966	0.450989
H93	H	1.165415	0.434671	0.792765
N94	N	1.207459	0.785054	0.327361
H95	H	1.184537	0.751503	0.289132
H96	H	1.232132	0.828133	0.301911
H97	H	1.087450	0.234076	0.792868
N98	N	0.498859	0.316356	0.223549
H99	H	0.465636	0.361149	0.225634
H100	H	0.541703	0.326539	0.189309
H101	H	1.092240	0.235880	0.920179
H102	H	1.025796	0.471508	0.921661
N103	N	0.640381	0.316916	0.222803
H104	H	0.621495	0.367080	0.207257
H105	H	0.696173	0.317045	0.222374
N106	N	1.102381	0.786489	0.220714
H107	H	1.140847	0.753743	0.244457
H108	H	1.074549	0.757495	0.182019
N109	N	0.973990	0.785139	0.256026
H110	H	0.953569	0.752143	0.296113
H111	H	0.939487	0.828266	0.248002
H112	H	0.507954	0.451397	0.277877
H113	H	0.954823	0.793362	0.400884
H114	H	1.167856	0.920633	0.432895
H115	H	0.506389	0.281216	0.454725
H116	H	0.635017	0.374209	0.479611
N117	N	1.030491	0.926647	0.491223
H118	H	0.987045	0.955574	0.510946
H119	H	1.040540	0.883037	0.524565
N120	N	1.204935	0.925894	0.321615
H121	H	1.255155	0.905388	0.334742
H122	H	1.190512	0.908610	0.270564
N123	N	0.501134	0.392582	0.491554
H124	H	0.518423	0.443617	0.477092
H125	H	0.445378	0.391668	0.493400
N126	N	0.936709	0.927988	0.396989
H127	H	0.938893	0.961128	0.352145
H128	H	0.902711	0.884977	0.386700
N129	N	0.936317	0.396455	0.786666
H130	H	0.900421	0.434880	0.805335
H131	H	0.936326	0.396574	0.730871
N132	N	0.972817	0.925658	0.256779
H133	H	0.934928	0.906415	0.292917
H134	H	0.971885	0.981445	0.256768
N135	N	1.170274	0.454245	0.926331
H136	H	1.180229	0.487134	0.882369
H137	H	1.129076	0.476099	0.956951
