data_functionalizedCrystal
_audit_creation_method	'MofGen! by Chris Wilmer'
_symmetry_space_group_name_H-M	'P1'
_symmetry_Int_Tables_number	1
_symmetry_cell_setting	triclinic
loop_
_symmetry_equiv_pos_as_xyz
  x,y,z
_cell_length_a	14.044220
_cell_length_b	15.944551
_cell_length_c	13.101039
_cell_angle_alpha	93.361595
_cell_angle_beta	86.340132
_cell_angle_gamma	88.343808
loop_
_atom_site_label
_atom_site_type_symbol
_atom_site_fract_x
_atom_site_fract_y
_atom_site_fract_z
O1	O	1.262927	0.198266	-0.085109
O2	O	0.986959	0.190957	-0.085135
O3	O	1.132479	0.072901	-0.085112
O4	O	1.117408	0.316322	-0.085132
O5	O	1.122038	0.081387	0.085316
O6	O	0.976518	0.199443	0.085293
O7	O	1.252486	0.206752	0.085319
Zn8	Zn	1.112845	0.204444	0.112365
Zn9	Zn	1.126601	0.193264	-0.112181
O10	O	1.106967	0.324807	0.085296
C11	C	0.946424	0.192001	0.000076
C12	C	0.841198	0.182459	0.000066
C13	C	0.648535	0.165017	0.000088
C14	C	0.590906	0.232688	0.000087
C15	C	0.483701	0.222982	0.000099
C16	C	0.755749	0.174721	0.000076
C17	C	1.126633	0.045803	0.000102
C18	C	1.124757	-0.047583	0.000102
C19	C	1.030074	-0.269531	0.000079
C20	C	1.068894	-0.323071	0.084115
C21	C	1.121364	-0.218563	0.000094
C22	C	1.079209	-0.331419	-0.083914
C23	C	1.118080	-0.383723	0.000082
C24	C	1.160204	-0.270871	0.084199
C25	C	1.170512	-0.279217	-0.083905
C26	C	1.209397	-0.332734	0.000151
C27	C	1.123253	-0.123419	0.000102
C28	C	1.116197	-0.478865	0.000081
C29	C	1.293021	0.205707	0.000106
C30	C	1.398248	0.215249	0.000108
C31	C	1.112813	0.351905	0.000079
C32	C	1.114689	0.445291	0.000072
N33	N	1.103463	0.212075	0.265612
N34	N	1.135990	0.185628	-0.265429
C35	C	1.090699	0.222464	0.474653
C36	C	1.148750	0.175242	0.525537
C37	C	1.141649	0.181022	0.641855
C38	C	1.097800	0.216684	0.358325
H39	H	0.617361	0.099799	0.000099
C40	C	1.205949	-0.235544	0.178914
C41	C	1.286770	-0.191332	0.149047
C42	C	1.328922	-0.158766	0.236269
H43	H	1.224165	-0.280314	0.219060
H44	H	1.161500	-0.198658	0.218189
H45	H	1.331210	-0.228215	0.109789
H46	H	1.268580	-0.146550	0.108913
H47	H	1.284474	-0.121880	0.275545
H48	H	1.347132	-0.203541	0.276409
H49	H	1.383758	-0.128758	0.216017
C50	C	0.929001	-0.232707	0.000387
C51	C	0.876238	-0.254717	0.088573
C52	C	0.783133	-0.220799	0.088903
H53	H	0.899744	-0.254247	-0.058636
H54	H	0.930892	-0.173221	-0.000169
H55	H	0.874342	-0.314190	0.089119
H56	H	0.905464	-0.233177	0.147611
H57	H	0.785024	-0.161313	0.088348
H58	H	0.753886	-0.242342	0.029876
H59	H	0.747324	-0.235721	0.148741
C60	C	1.011685	-0.349200	0.178796
C61	C	1.011440	-0.437041	0.178005
C62	C	0.958754	-0.461138	0.265211
H63	H	0.947956	-0.327558	0.178791
H64	H	1.039854	-0.327611	0.238500
H65	H	0.983268	-0.458621	0.118318
H66	H	1.075155	-0.458704	0.178026
H67	H	0.986923	-0.439548	0.324914
H68	H	0.895028	-0.439491	0.265198
H69	H	0.958588	-0.520740	0.264690
C70	C	1.227904	-0.253351	-0.178595
C71	C	1.321256	-0.286755	-0.179236
C72	C	1.374141	-0.262952	-0.266463
H73	H	1.229270	-0.193784	-0.177653
H74	H	1.199091	-0.274128	-0.238276
H75	H	1.350062	-0.265973	-0.119570
H76	H	1.319919	-0.346320	-0.180193
H77	H	1.345329	-0.283729	-0.326145
H78	H	1.375500	-0.203385	-0.265514
H79	H	1.437484	-0.285619	-0.266915
H80	H	1.035671	0.267230	0.518441
H81	H	1.044938	-0.357926	-0.154965
C82	C	1.222188	0.115594	0.467158
C83	C	1.313881	0.137266	0.493034
C84	C	1.381511	0.082330	0.439225
H85	H	1.217297	0.119603	0.395615
H86	H	1.210765	0.059614	0.484664
H87	H	1.325301	0.193232	0.475522
H88	H	1.318802	0.133253	0.564568
H89	H	1.370087	0.026350	0.456731
H90	H	1.376611	0.086343	0.367685
H91	H	1.443731	0.097022	0.456782
C92	C	0.632656	0.319583	-0.000010
C93	C	0.732233	0.312059	-0.000059
C94	C	0.770731	0.392083	-0.000176
H95	H	0.608347	0.352284	0.059394
H96	H	0.615543	0.346265	-0.059478
H97	H	0.749338	0.285389	0.059403
H98	H	0.756567	0.279373	-0.059458
H99	H	0.753618	0.418766	-0.059644
H100	H	0.746416	0.424778	0.059229
H101	H	0.838298	0.386989	-0.000218
C102	C	1.310456	-0.369533	0.000132
C103	C	1.307705	-0.457280	-0.000743
C104	C	1.400783	-0.491203	-0.000784
H105	H	1.339180	-0.348726	0.059840
H106	H	1.346735	-0.353840	-0.059027
H107	H	1.271440	-0.472965	0.058410
H108	H	1.278999	-0.478110	-0.060447
H109	H	1.437063	-0.475511	-0.059943
H110	H	1.429500	-0.470390	0.058925
H111	H	1.398930	-0.550743	-0.001388
