data_functionalizedCrystal
_audit_creation_method	'MofGen! by Chris Wilmer'
_symmetry_space_group_name_H-M	'P1'
_symmetry_Int_Tables_number	1
_symmetry_cell_setting	triclinic
loop_
_symmetry_equiv_pos_as_xyz
  x,y,z
_cell_length_a	21.395362
_cell_length_b	29.839131
_cell_length_c	29.839125
_cell_angle_alpha	89.982291
_cell_angle_beta	89.968353
_cell_angle_gamma	90.057297
loop_
_atom_site_label
_atom_site_type_symbol
_atom_site_fract_x
_atom_site_fract_y
_atom_site_fract_z
Zn1	Zn	0.957737	-0.178726	-0.254241
Zn2	Zn	1.457737	0.321274	0.245759
Zn3	Zn	0.957642	-0.253838	-0.179111
Zn4	Zn	1.457642	0.246162	0.320889
Zn5	Zn	0.852974	-0.178744	-0.179098
Zn6	Zn	1.352974	0.321256	0.320902
Zn7	Zn	0.852901	-0.253851	-0.254187
Zn8	Zn	1.352901	0.246149	0.245813
O9	O	0.905314	-0.216290	-0.216659
O10	O	1.405314	0.283710	0.283341
O11	O	1.045402	-0.188677	-0.244303
O12	O	1.545402	0.311323	0.255697
O13	O	0.943749	-0.243879	-0.116242
O14	O	1.443749	0.256121	0.383758
O15	O	0.866941	-0.115874	-0.189083
O16	O	1.366941	0.384126	0.310917
O17	O	1.045333	-0.243862	-0.189105
O18	O	1.545333	0.256138	0.310895
O19	O	0.943910	-0.115861	-0.244290
O20	O	1.443910	0.384139	0.255710
O21	O	0.866850	-0.188707	-0.116232
O22	O	1.366850	0.311293	0.383768
O23	O	0.765287	-0.188719	-0.189030
O24	O	1.265287	0.311281	0.310970
O25	O	0.866817	-0.243883	-0.317061
O26	O	1.366817	0.256117	0.182939
O27	O	0.765233	-0.243900	-0.244198
O28	O	1.265233	0.256100	0.255802
O29	O	0.943839	-0.188689	-0.317101
O30	O	1.443839	0.311311	0.182899
O31	O	0.943678	-0.316707	-0.189053
O32	O	1.443678	0.183293	0.310947
O33	O	0.866725	-0.316716	-0.244210
O34	O	1.366725	0.183284	0.255790
C35	C	0.742526	-0.216313	-0.216607
C36	C	1.242526	0.283687	0.283393
C37	C	0.672885	-0.216334	-0.216595
C38	C	1.172885	0.283666	0.283405
C39	C	0.640160	-0.245105	-0.245278
C40	C	1.140160	0.254895	0.254722
C41	C	0.574725	-0.245094	-0.245298
C42	C	1.074725	0.254906	0.254702
C43	C	0.542016	-0.216317	-0.216627
C44	C	1.042016	0.283683	0.283373
C45	C	0.574749	-0.187541	-0.187943
C46	C	1.074749	0.312459	0.312057
C47	C	0.640183	-0.187549	-0.187927
C48	C	1.140183	0.312451	0.312073
C49	C	0.438305	-0.212696	-0.176184
C50	C	0.938305	0.287304	0.323816
C51	C	0.372872	-0.212691	-0.176199
C52	C	0.872872	0.287309	0.323801
C53	C	0.340196	-0.216288	-0.216677
C54	C	0.840196	0.283712	0.283323
C55	C	0.372961	-0.219900	-0.257141
C56	C	0.872961	0.280100	0.242859
C57	C	0.438395	-0.219908	-0.257125
C58	C	0.938395	0.280092	0.242875
C59	C	0.471064	-0.216304	-0.216642
C60	C	0.971064	0.283696	0.283358
C61	C	0.236519	-0.245048	-0.245384
C62	C	0.736519	0.254952	0.254616
C63	C	0.171082	-0.245034	-0.245404
C64	C	0.671082	0.254966	0.254596
C65	C	0.171107	-0.187483	-0.188045
C66	C	0.671107	0.312517	0.311955
C67	C	0.236543	-0.187495	-0.188028
C68	C	0.736543	0.312505	0.311972
C69	C	0.269244	-0.216280	-0.216697
C70	C	0.769244	0.283720	0.283303
C71	C	0.905201	-0.333012	-0.216637
C72	C	1.405201	0.166988	0.283363
C73	C	0.905209	-0.382947	-0.216642
C74	C	1.405209	0.117053	0.283358
C75	C	0.945456	-0.692572	-0.187980
C76	C	1.445456	-0.192572	0.312020
C77	C	0.945533	-0.880245	-0.187998
C78	C	1.445533	-0.380245	0.312002
O79	O	0.979662	-0.904495	-0.163611
O80	O	1.479662	-0.404495	0.336389
N81	N	0.905444	-0.903732	-0.216693
N82	N	1.405444	-0.403732	0.283307
C83	C	0.865335	-0.880296	-0.245388
C84	C	1.365335	-0.380296	0.254612
O85	O	0.831243	-0.904579	-0.269799
O86	O	1.331243	-0.404579	0.230201
C87	C	0.865261	-0.692624	-0.245372
C88	C	1.365261	-0.192624	0.254628
C89	C	0.905349	-0.669141	-0.216672
C90	C	1.405349	-0.169141	0.283328
C91	C	0.985541	-0.669089	-0.159283
C92	C	1.485541	-0.169089	0.340717
C93	C	0.985518	-0.622173	-0.159277
C94	C	1.485518	-0.122173	0.340723
C95	C	0.945411	-0.598742	-0.187969
C96	C	1.445411	-0.098742	0.312031
C97	C	0.905327	-0.622225	-0.216666
C98	C	1.405327	-0.122225	0.283334
C99	C	0.825156	-0.669190	-0.274069
C100	C	1.325156	-0.169190	0.225931
C101	C	0.825142	-0.622269	-0.274064
C102	C	1.325142	-0.122269	0.225936
C103	C	0.865230	-0.598785	-0.245363
C104	C	1.365230	-0.098785	0.254637
C105	C	0.865197	-0.551878	-0.245352
C106	C	1.365197	-0.051878	0.254648
N107	N	0.905287	-0.528392	-0.216657
N108	N	1.405287	-0.028392	0.283343
C109	C	0.945394	-0.551824	-0.187965
C110	C	1.445394	-0.051824	0.312035
C111	C	0.865375	-0.978827	-0.245393
C112	C	1.365375	-0.478827	0.254607
C113	C	0.865393	-1.025745	-0.245397
C114	C	1.365393	-0.525745	0.254603
C115	C	0.945592	-1.025691	-0.188007
C116	C	1.445592	-0.525691	0.311993
C117	C	0.945571	-0.978772	-0.188002
C118	C	1.445571	-0.478772	0.311998
C119	C	0.905465	-0.955341	-0.216698
C120	C	1.405465	-0.455341	0.283302
C121	C	0.945344	-0.453298	-0.187955
C122	C	1.445344	0.046702	0.312045
C123	C	0.945316	-0.406378	-0.187951
C124	C	1.445316	0.093622	0.312049
C125	C	0.865120	-0.406437	-0.245342
C126	C	1.365120	0.093563	0.254658
C127	C	0.865145	-0.453352	-0.245345
C128	C	1.365145	0.046648	0.254655
C129	C	0.905262	-0.476782	-0.216650
C130	C	1.405262	0.023218	0.283350
O131	O	0.831091	-0.527599	-0.269730
O132	O	1.331091	-0.027599	0.230270
O133	O	0.979491	-0.527533	-0.163565
O134	O	1.479491	-0.027533	0.336435
C135	C	0.945478	-0.739488	-0.187986
C136	C	1.445478	-0.239488	0.312014
C137	C	0.905393	-0.762972	-0.216684
C138	C	1.405393	-0.262972	0.283316
C139	C	0.865286	-0.739540	-0.245375
C140	C	1.365286	-0.239540	0.254625
C141	C	0.905411	-0.809889	-0.216687
C142	C	1.405411	-0.309889	0.283313
C143	C	0.945518	-0.833321	-0.187995
C144	C	1.445518	-0.333321	0.312005
C145	C	0.985607	-0.809835	-0.159300
C146	C	1.485607	-0.309835	0.340700
C147	C	0.985585	-0.762920	-0.159294
C148	C	1.485585	-0.262920	0.340706
C149	C	0.825196	-0.763026	-0.274071
C150	C	1.325196	-0.263026	0.225929
C151	C	0.825221	-0.809941	-0.274074
C152	C	1.325221	-0.309941	0.225926
C153	C	0.865328	-0.833373	-0.245382
C154	C	1.365328	-0.333373	0.254618
C155	C	1.068737	-0.216266	-0.216712
C156	C	1.568737	0.283734	0.283288
C157	C	1.138378	-0.216256	-0.216734
C158	C	1.638378	0.283744	0.283266
C159	C	0.905331	-0.216285	-0.333837
C160	C	1.405331	0.283715	0.166163
C161	C	0.905338	-0.216284	-0.383772
C162	C	1.405338	0.283716	0.116228
C163	C	0.905444	-0.099111	-0.216691
C164	C	1.405444	0.400889	0.283309
C165	C	0.905500	-0.049177	-0.216705
C166	C	1.405500	0.450823	0.283295
C167	C	0.945485	-0.187469	-0.693439
C168	C	1.445485	0.312531	-0.193439
C169	C	0.945517	-0.187431	-0.881112
C170	C	1.445517	0.312569	-0.381112
O171	O	0.979605	-0.162974	-0.905397
O172	O	1.479605	0.337026	-0.405397
N173	N	0.905421	-0.216163	-0.904557
N174	N	1.405421	0.283837	-0.404557
C175	C	0.865312	-0.244906	-0.881081
C176	C	1.365312	0.255094	-0.381081
O177	O	0.831204	-0.269340	-0.905328
O178	O	1.331204	0.230660	-0.405328
C179	C	0.865278	-0.244941	-0.693409
C180	C	1.365278	0.255059	-0.193409
C181	C	0.905381	-0.216210	-0.669966
C182	C	1.405381	0.283790	-0.169966
C183	C	0.985584	-0.158740	-0.669997
C184	C	1.485584	0.341260	-0.169997
C185	C	0.985579	-0.158752	-0.623081
C186	C	1.485579	0.341248	-0.123081
C187	C	0.945474	-0.187492	-0.599608
C188	C	1.445474	0.312508	-0.099608
C189	C	0.905375	-0.216222	-0.623051
C190	C	1.405375	0.283778	-0.123051
C191	C	0.825166	-0.273681	-0.669933
C192	C	1.325166	0.226319	-0.169933
C193	C	0.825160	-0.273686	-0.623012
C194	C	1.325160	0.226314	-0.123012
C195	C	0.865263	-0.244955	-0.599570
C196	C	1.365263	0.255045	-0.099570
C197	C	0.865264	-0.244974	-0.552662
C198	C	1.365264	0.255026	-0.052662
N199	N	0.905360	-0.216241	-0.529217
N200	N	1.405360	0.283759	-0.029217
C201	C	0.945465	-0.187501	-0.552690
C202	C	1.445465	0.312499	-0.052690
C203	C	0.865333	-0.244885	-0.979612
C204	C	1.365333	0.255115	-0.479612
C205	C	0.865342	-0.244877	-1.026529
C206	C	1.365342	0.255123	-0.526529
C207	C	0.945546	-0.187402	-1.026558
C208	C	1.445546	0.312598	-0.526558
C209	C	0.945540	-0.187413	-0.979639
C210	C	1.445540	0.312587	-0.479639
C211	C	0.905429	-0.216153	-0.956167
C212	C	1.405429	0.283847	-0.456167
C213	C	0.945450	-0.187527	-0.454165
C214	C	1.445450	0.312473	0.045835
C215	C	0.945443	-0.187543	-0.407245
C216	C	1.445443	0.312457	0.092755
C217	C	0.865236	-0.245016	-0.407221
C218	C	1.365236	0.254984	0.092779
C219	C	0.865246	-0.245003	-0.454136
C220	C	1.365246	0.254997	0.045864
C221	C	0.905355	-0.216255	-0.477607
C222	C	1.405355	0.283745	0.022393
O223	O	0.831189	-0.269414	-0.528348
O224	O	1.331189	0.230586	-0.028348
O225	O	0.979558	-0.163063	-0.528435
O226	O	1.479558	0.336937	-0.028435
C227	C	0.945491	-0.187458	-0.740355
C228	C	1.445491	0.312542	-0.240355
C229	C	0.905392	-0.216187	-0.763797
C230	C	1.405392	0.283813	-0.263797
C231	C	0.865288	-0.244928	-0.740324
C232	C	1.365288	0.255072	-0.240324
C233	C	0.905401	-0.216179	-0.810715
C234	C	1.405401	0.283821	-0.310715
C235	C	0.945506	-0.187438	-0.834188
C236	C	1.445506	0.312562	-0.334188
C237	C	0.985602	-0.158705	-0.810743
C238	C	1.485602	0.341295	-0.310743
C239	C	0.985596	-0.158717	-0.763828
C240	C	1.485596	0.341283	-0.263828
C241	C	0.825192	-0.273660	-0.763769
C242	C	1.325192	0.226340	-0.263769
C243	C	0.825201	-0.273647	-0.810685
C244	C	1.325201	0.226353	-0.310685
C245	C	0.865306	-0.244906	-0.834158
C246	C	1.365306	0.255094	-0.334158
C247	C	0.905333	-0.216261	-0.099937
C248	C	1.405333	0.283739	0.400063
C249	C	0.905447	-0.216136	-0.050002
C250	C	1.405447	0.283864	0.449998
H251	H	0.548114	-0.164110	-0.164600
H252	H	1.048114	0.335890	0.335400
C253	C	0.781042	-0.305305	-0.597192
C254	C	1.281042	0.194695	-0.097192
C255	C	0.731868	-0.285856	-0.564921
C256	C	1.231868	0.214144	-0.064921
C257	C	0.687753	-0.317476	-0.539101
C258	C	1.187753	0.182524	-0.039101
C259	C	0.692813	-0.368545	-0.545552
C260	C	1.192813	0.131455	-0.045552
C261	C	0.741989	-0.387997	-0.577824
C262	C	1.241989	0.112003	-0.077824
C263	C	0.786104	-0.356377	-0.603644
C264	C	1.286104	0.143623	-0.103644
H265	H	0.728120	-0.248049	-0.560145
H266	H	1.228120	0.251951	-0.060145
H267	H	0.651350	-0.303076	-0.515211
H268	H	1.151350	0.196924	-0.015211
H269	H	0.660157	-0.391952	-0.526438
H270	H	1.160157	0.108048	-0.026438
H271	H	0.745737	-0.425803	-0.582600
H272	H	1.245737	0.074197	-0.082600
H273	H	0.822507	-0.370776	-0.627534
H274	H	1.322507	0.129224	-0.127534
C275	C	1.029685	-0.737091	-0.127726
C276	C	1.529685	-0.237091	0.372274
C277	C	1.078847	-0.704783	-0.147230
C278	C	1.578847	-0.204783	0.352770
C279	C	1.122950	-0.678958	-0.115660
C280	C	1.622950	-0.178958	0.384340
C281	C	1.117891	-0.685440	-0.064585
C282	C	1.617891	-0.185440	0.435415
C283	C	1.068727	-0.717749	-0.045078
C284	C	1.568727	-0.217749	0.454922
C285	C	1.024624	-0.743575	-0.076648
C286	C	1.524624	-0.243575	0.423352
H287	H	1.082593	-0.699984	-0.185041
H288	H	1.582593	-0.199984	0.314959
H289	H	1.159344	-0.655041	-0.130101
H290	H	1.659344	-0.155041	0.369899
H291	H	1.150538	-0.666323	-0.041215
H292	H	1.650538	-0.166323	0.458785
H293	H	1.064980	-0.722549	-0.007267
H294	H	1.564980	-0.222549	0.492733
H295	H	0.988230	-0.767492	-0.062207
H296	H	1.488230	-0.267492	0.437793
C297	C	0.989416	-0.380547	-0.156380
C298	C	1.489416	0.119453	0.343620
C299	C	1.038573	-0.348236	-0.175885
C300	C	1.538573	0.151764	0.324115
C301	C	1.082672	-0.322406	-0.144316
C302	C	1.582672	0.177594	0.355684
C303	C	1.077614	-0.328886	-0.093241
C304	C	1.577614	0.171114	0.406759
C305	C	1.028455	-0.361199	-0.073733
C306	C	1.528455	0.138801	0.426267
C307	C	0.984356	-0.387029	-0.105302
C308	C	1.484356	0.112971	0.394698
H309	H	1.042319	-0.343437	-0.213697
H310	H	1.542319	0.156563	0.286303
H311	H	1.119063	-0.298486	-0.158758
H312	H	1.619063	0.201514	0.341242
H313	H	1.110259	-0.309765	-0.069872
H314	H	1.610259	0.190235	0.430128
H315	H	1.024709	-0.365997	-0.035921
H316	H	1.524709	0.134003	0.464079
H317	H	0.947966	-0.410948	-0.090860
H318	H	1.447966	0.089052	0.409140
C319	C	0.821290	-1.051574	-0.276963
C320	C	1.321290	-0.551574	0.223037
C321	C	0.821300	-1.103182	-0.276972
C322	C	1.321300	-0.603182	0.223028
C323	C	0.777197	-1.129008	-0.308542
C324	C	1.277197	-0.629008	0.191458
C325	C	0.733085	-1.103228	-0.340101
C326	C	1.233085	-0.603228	0.159899
C327	C	0.733073	-1.051617	-0.340093
C328	C	1.233073	-0.551617	0.159907
C329	C	0.777175	-1.025790	-0.308524
C330	C	1.277175	-0.525790	0.191476
H331	H	0.853956	-1.122269	-0.253609
H332	H	1.353956	-0.622269	0.246391
H333	H	0.777207	-1.167214	-0.308547
H334	H	1.277207	-0.667214	0.191453
H335	H	0.700437	-1.122346	-0.363471
H336	H	1.200437	-0.622346	0.136529
H337	H	0.700416	-1.032530	-0.363457
H338	H	1.200416	-0.532530	0.136543
H339	H	0.777166	-0.987584	-0.308518
H340	H	1.277166	-0.487584	0.191482
C341	C	0.989672	-0.952942	-0.156435
C342	C	1.489672	-0.452942	0.343565
C343	C	0.962551	-0.920725	-0.121135
C344	C	1.462551	-0.420725	0.378865
C345	C	1.006656	-0.894898	-0.089567
C346	C	1.506656	-0.394898	0.410433
C347	C	1.077881	-0.901288	-0.093300
C348	C	1.577881	-0.401288	0.406700
C349	C	1.105005	-0.933506	-0.128601
C350	C	1.605005	-0.433506	0.371399
C351	C	1.060901	-0.959333	-0.160169
C352	C	1.560901	-0.459333	0.339831
H353	H	0.909823	-0.915994	-0.118370
H354	H	1.409823	-0.415994	0.381630
H355	H	0.986576	-0.871048	-0.063435
H356	H	1.486576	-0.371048	0.436565
H357	H	1.110529	-0.882169	-0.069931
H358	H	1.610529	-0.382169	0.430069
H359	H	1.157733	-0.938237	-0.131365
H360	H	1.657733	-0.438237	0.368635
H361	H	1.080980	-0.983183	-0.186301
H362	H	1.580980	-0.483183	0.313699
C363	C	0.781120	-0.835769	-0.305646
C364	C	1.281120	-0.335769	0.194354
C365	C	0.731957	-0.868079	-0.286147
C366	C	1.231957	-0.368079	0.213853
C367	C	0.687861	-0.893905	-0.317721
C368	C	1.187861	-0.393905	0.182279
C369	C	0.692927	-0.887421	-0.368796
C370	C	1.192927	-0.387421	0.131204
C371	C	0.742092	-0.855110	-0.388298
C372	C	1.242092	-0.355110	0.111702
C373	C	0.786188	-0.829284	-0.356723
C374	C	1.286188	-0.329284	0.143277
H375	H	0.728204	-0.872880	-0.248336
H376	H	1.228204	-0.372880	0.251664
H377	H	0.651465	-0.917824	-0.303284
H378	H	1.151465	-0.417824	0.196716
H379	H	0.660285	-0.906539	-0.392169
H380	H	1.160285	-0.406539	0.107831
H381	H	0.745845	-0.850309	-0.426109
H382	H	1.245845	-0.350309	0.073891
H383	H	0.822583	-0.805365	-0.371160
H384	H	1.322583	-0.305365	0.128840
C385	C	1.029684	-0.127141	-0.597297
C386	C	1.529684	0.372859	-0.097297
C387	C	1.078854	-0.146597	-0.565055
C388	C	1.578854	0.353403	-0.065055
C389	C	1.122958	-0.114983	-0.539273
C390	C	1.622958	0.385017	-0.039273
C391	C	1.117891	-0.063912	-0.545735
C392	C	1.617891	0.436088	-0.045735
C393	C	1.068719	-0.044453	-0.577978
C394	C	1.568719	0.455547	-0.077978
C395	C	1.024615	-0.076067	-0.603760
C396	C	1.524615	0.423933	-0.103760
H397	H	1.082606	-0.184405	-0.560270
H398	H	1.582606	0.315595	-0.060270
H399	H	1.159358	-0.129388	-0.515404
H400	H	1.659358	0.370612	-0.015404
H401	H	1.150540	-0.040509	-0.526650
H402	H	1.650540	0.459491	-0.026650
H403	H	1.064967	-0.006645	-0.582763
H404	H	1.564967	0.493355	-0.082763
H405	H	0.988215	-0.061662	-0.627629
H406	H	1.488215	0.438338	-0.127629
C407	C	0.821132	-0.276633	-0.381390
C408	C	1.321132	0.223367	0.118610
C409	C	0.771967	-0.257179	-0.349116
C410	C	1.271967	0.242821	0.150884
C411	C	0.727863	-0.288796	-0.323282
C412	C	1.227863	0.211204	0.176718
C413	C	0.732925	-0.339866	-0.329722
C414	C	1.232925	0.160134	0.170278
C415	C	0.782092	-0.359322	-0.361998
C416	C	1.282092	0.140678	0.138002
C417	C	0.826196	-0.327706	-0.387832
C418	C	1.326196	0.172294	0.112168
H419	H	0.768218	-0.219372	-0.344347
H420	H	1.268218	0.280628	0.155653
H421	H	0.691466	-0.274392	-0.299389
H422	H	1.191466	0.225608	0.200611
H423	H	0.700277	-0.363270	-0.310598
H424	H	1.200277	0.136730	0.189402
H425	H	0.785841	-0.397130	-0.366767
H426	H	1.285841	0.102870	0.133233
H427	H	0.862593	-0.342109	-0.411725
H428	H	1.362593	0.157891	0.088275
C429	C	0.989658	-0.155783	-1.052384
C430	C	1.489658	0.344217	-0.552384
C431	C	0.984591	-0.104714	-1.045941
C432	C	1.484591	0.395286	-0.545941
C433	C	1.028696	-0.073094	-1.071770
C434	C	1.528696	0.426906	-0.571770
C435	C	1.077868	-0.092545	-1.104042
C436	C	1.577868	0.407455	-0.604042
C437	C	1.082937	-0.143617	-1.110486
C438	C	1.582937	0.356383	-0.610486
C439	C	1.038832	-0.175236	-1.084657
C440	C	1.538832	0.324764	-0.584657
H441	H	0.948190	-0.090313	-1.022050
H442	H	1.448190	0.409687	-0.522050
H443	H	1.024944	-0.035287	-1.066999
H444	H	1.524944	0.464713	-0.566999
H445	H	1.110517	-0.069138	-1.123162
H446	H	1.610517	0.430862	-0.623162
H447	H	1.119339	-0.158017	-1.134377
H448	H	1.619339	0.341983	-0.634377
H449	H	1.042585	-0.213043	-1.089428
H450	H	1.542585	0.286957	-0.589428
H451	H	0.263188	-0.164069	-0.164670
H452	H	0.763188	0.335931	0.335330
C453	C	0.336834	-0.208722	-0.131690
C454	C	0.836834	0.291278	0.368310
C455	C	0.372772	-0.204759	-0.087165
C456	C	0.872772	0.295241	0.412835
C457	C	0.336736	-0.200791	-0.042655
C458	C	0.836736	0.299209	0.457345
C459	C	0.264761	-0.200787	-0.042669
C460	C	0.764761	0.299213	0.457331
C461	C	0.228818	-0.204751	-0.087196
C462	C	0.728818	0.295249	0.412804
C463	C	0.264855	-0.208718	-0.131706
C464	C	0.764855	0.291282	0.368294
H465	H	0.426056	-0.204761	-0.087153
H466	H	0.926056	0.295239	0.412847
H467	H	0.363343	-0.197857	-0.009693
H468	H	0.863343	0.302143	0.490307
H469	H	0.238084	-0.197851	-0.009720
H470	H	0.738084	0.302149	0.490280
H471	H	0.175534	-0.204748	-0.087208
H472	H	0.675534	0.295252	0.412792
H473	H	0.238247	-0.211652	-0.164667
H474	H	0.738247	0.288348	0.335333
H475	H	0.832597	-0.268402	-0.473224
H476	H	1.332597	0.231598	0.026776
H477	H	0.832504	-0.472473	-0.268716
H478	H	1.332504	0.027527	0.231284
C479	C	0.474248	-0.208737	-0.131655
C480	C	0.974248	0.291263	0.368345
C481	C	0.465283	-0.167211	-0.101714
C482	C	0.965283	0.332789	0.398286
C483	C	0.501226	-0.163250	-0.057188
C484	C	1.001226	0.336750	0.442812
C485	C	0.546134	-0.200816	-0.042604
C486	C	1.046134	0.299184	0.457396
C487	C	0.555101	-0.242346	-0.072546
C488	C	1.055101	0.257654	0.427454
C489	C	0.519157	-0.246307	-0.117071
C490	C	1.019157	0.253693	0.382929
H491	H	0.432038	-0.139399	-0.112509
H492	H	0.932038	0.360601	0.387491
H493	H	0.494588	-0.132507	-0.035023
H494	H	0.994588	0.367493	0.464977
H495	H	0.572741	-0.197885	-0.009643
H496	H	1.072741	0.302115	0.490357
H497	H	0.588346	-0.270158	-0.061750
H498	H	1.088346	0.229842	0.438250
H499	H	0.525795	-0.277050	-0.139236
H500	H	1.025795	0.222950	0.360764
H501	H	0.666827	-0.164119	-0.164570
H502	H	1.166827	0.335881	0.335430
C503	C	0.781060	-0.695012	-0.305644
C504	C	1.281060	-0.195012	0.194356
C505	C	0.709835	-0.688620	-0.301920
C506	C	1.209835	-0.188620	0.198080
C507	C	0.665737	-0.714440	-0.333498
C508	C	1.165737	-0.214440	0.166502
C509	C	0.692864	-0.746651	-0.368801
C510	C	1.192864	-0.246651	0.131199
C511	C	0.764094	-0.753044	-0.372527
C512	C	1.264094	-0.253044	0.127473
C513	C	0.808192	-0.727224	-0.340948
C514	C	1.308192	-0.227224	0.159052
H515	H	0.689750	-0.664775	-0.275786
H516	H	1.189750	-0.164775	0.224214
H517	H	0.613008	-0.709708	-0.330740
H518	H	1.113008	-0.209708	0.169260
H519	H	0.660221	-0.765764	-0.392177
H520	H	1.160221	-0.265764	0.107823
H521	H	0.784179	-0.776890	-0.398661
H522	H	1.284179	-0.276890	0.101339
H523	H	0.860920	-0.731957	-0.343706
H524	H	1.360920	-0.231957	0.156294
C525	C	0.781021	-0.596495	-0.305629
C526	C	1.281021	-0.096495	0.194371
C527	C	0.709801	-0.603017	-0.301900
C528	C	1.209801	-0.103017	0.198100
C529	C	0.665679	-0.577244	-0.333463
C530	C	1.165679	-0.077244	0.166537
C531	C	0.692777	-0.544949	-0.368756
C532	C	1.192777	-0.044949	0.131244
C533	C	0.764001	-0.538426	-0.372487
C534	C	1.264001	-0.038426	0.127513
C535	C	0.808123	-0.564199	-0.340923
C536	C	1.308123	-0.064199	0.159077
H537	H	0.689737	-0.626925	-0.275772
H538	H	1.189737	-0.126925	0.224228
H539	H	0.612954	-0.582073	-0.330701
H540	H	1.112954	-0.082073	0.169299
H541	H	0.660115	-0.525871	-0.392121
H542	H	1.160115	-0.025871	0.107879
H543	H	0.784064	-0.514518	-0.398614
H544	H	1.284064	-0.014518	0.101386
H545	H	0.860848	-0.559370	-0.343685
H546	H	1.360848	-0.059370	0.156315
H547	H	0.792534	-0.297066	-0.744662
H548	H	1.292534	0.202934	-0.244662
H549	H	0.548075	-0.268522	-0.268657
H550	H	1.048075	0.231478	0.231343
C551	C	0.989468	-0.479066	-0.156388
C552	C	1.489468	0.020934	0.343612
C553	C	0.984394	-0.472636	-0.105313
C554	C	1.484394	0.027364	0.394687
C555	C	1.028514	-0.498404	-0.073744
C556	C	1.528514	0.001596	0.426256
C557	C	1.077708	-0.530602	-0.093250
C558	C	1.577708	-0.030602	0.406750
C559	C	1.082784	-0.537034	-0.144329
C560	C	1.582784	-0.037034	0.355671
C561	C	1.038664	-0.511266	-0.175898
C562	C	1.538664	-0.011266	0.324102
H563	H	0.947976	-0.448799	-0.090870
H564	H	1.447976	0.051201	0.409130
H565	H	1.024756	-0.493642	-0.035932
H566	H	1.524756	0.006358	0.464068
H567	H	1.110368	-0.549678	-0.069881
H568	H	1.610368	-0.049678	0.430119
H569	H	1.119202	-0.560871	-0.158771
H570	H	1.619202	-0.060871	0.341229
H571	H	1.042422	-0.516028	-0.213710
H572	H	1.542422	-0.016028	0.286290
H573	H	0.832715	-0.959753	-0.268762
H574	H	1.332715	-0.459753	0.231238
C575	C	0.781030	-0.305277	-0.695705
C576	C	1.281030	0.194723	-0.195705
C577	C	0.786053	-0.356350	-0.689245
C578	C	1.286053	0.143650	-0.189245
C579	C	0.741904	-0.387943	-0.715012
C580	C	1.241904	0.112057	-0.215012
C581	C	0.692733	-0.368464	-0.747240
C582	C	1.192733	0.131536	-0.247240
C583	C	0.687708	-0.317388	-0.753701
C584	C	1.187708	0.182612	-0.253701
C585	C	0.731857	-0.285794	-0.727934
C586	C	1.231857	0.214206	-0.227934
H587	H	0.822454	-0.370772	-0.665386
H588	H	1.322454	0.129228	-0.165386
H589	H	0.745624	-0.425753	-0.710228
H590	H	1.245624	0.074247	-0.210228
H591	H	0.660052	-0.391851	-0.766314
H592	H	1.160052	0.108149	-0.266314
H593	H	0.651307	-0.302966	-0.777559
H594	H	1.151307	0.197034	-0.277559
H595	H	0.728137	-0.247985	-0.732717
H596	H	1.228137	0.252015	-0.232717
H597	H	1.018163	-0.603056	-0.135908
H598	H	1.518163	-0.103056	0.364092
H599	H	1.018262	-0.828922	-0.135937
H600	H	1.518262	-0.328922	0.364063
C601	C	1.029707	-0.127109	-0.738046
C602	C	1.529707	0.372891	-0.238046
C603	C	1.024648	-0.076037	-0.744506
C604	C	1.524648	0.423963	-0.244506
C605	C	1.068760	-0.044427	-0.718728
C606	C	1.568760	0.455573	-0.218728
C607	C	1.117932	-0.063887	-0.686489
C608	C	1.617932	0.436113	-0.186489
C609	C	1.122992	-0.114961	-0.680027
C610	C	1.622992	0.385039	-0.180027
C611	C	1.078880	-0.146572	-0.705805
C612	C	1.578880	0.353428	-0.205805
H613	H	0.988246	-0.061629	-0.768373
H614	H	1.488246	0.438371	-0.268373
H615	H	1.065014	-0.006618	-0.723512
H616	H	1.565014	0.493382	-0.223512
H617	H	1.150586	-0.040487	-0.667406
H618	H	1.650586	0.459513	-0.167406
H619	H	1.159394	-0.129369	-0.656160
H620	H	1.659394	0.370631	-0.156160
H621	H	1.082627	-0.184380	-0.701021
H622	H	1.582627	0.315620	-0.201021
C623	C	0.989556	-0.155935	-0.381459
C624	C	1.489556	0.344065	0.118541
C625	C	0.984499	-0.104863	-0.387914
C626	C	1.484499	0.395137	0.112086
C627	C	1.028610	-0.073256	-0.362130
C628	C	1.528610	0.426744	0.137870
C629	C	1.077779	-0.092721	-0.329892
C630	C	1.577779	0.407279	0.170108
C631	C	1.082839	-0.143795	-0.323436
C632	C	1.582839	0.356205	0.176564
C633	C	1.038727	-0.175403	-0.349220
C634	C	1.538727	0.324597	0.150780
H635	H	0.948099	-0.090452	-0.411780
H636	H	1.448099	0.409548	0.088220
H637	H	1.024864	-0.035447	-0.366910
H638	H	1.524864	0.464553	0.133090
H639	H	1.110433	-0.069323	-0.310805
H640	H	1.610433	0.430677	0.189195
H641	H	1.119238	-0.158207	-0.299570
H642	H	1.619238	0.341793	0.200430
H643	H	1.042473	-0.213212	-0.344440
H644	H	1.542473	0.286788	0.155560
C645	C	0.989649	-0.155805	-0.953854
C646	C	1.489649	0.344195	-0.453854
C647	C	0.984593	-0.104734	-0.960315
C648	C	1.484593	0.395266	-0.460315
C649	C	1.028703	-0.073124	-0.934533
C650	C	1.528703	0.426876	-0.434533
C651	C	1.077869	-0.092586	-0.902291
C652	C	1.577869	0.407414	-0.402291
C653	C	1.082927	-0.143660	-0.895828
C654	C	1.582927	0.356340	-0.395828
C655	C	1.038817	-0.175269	-0.921610
C656	C	1.538817	0.324731	-0.421610
H657	H	0.948196	-0.090325	-0.984184
H658	H	1.448196	0.409675	-0.484184
H659	H	1.024958	-0.035316	-0.939317
H660	H	1.524958	0.464684	-0.439317
H661	H	1.110521	-0.069186	-0.883205
H662	H	1.610521	0.430814	-0.383205
H663	H	1.119324	-0.158069	-0.871959
H664	H	1.619324	0.341931	-0.371959
H665	H	1.042561	-0.213078	-0.916826
H666	H	1.542561	0.286922	-0.416826
C667	C	0.781079	-0.305251	-0.836466
C668	C	1.281079	0.194749	-0.336466
C669	C	0.786118	-0.356324	-0.830011
C670	C	1.286118	0.143676	-0.330011
C671	C	0.741989	-0.387924	-0.855789
C672	C	1.241989	0.112076	-0.355789
C673	C	0.692821	-0.368450	-0.888022
C674	C	1.192821	0.131550	-0.388022
C675	C	0.687779	-0.317374	-0.894478
C676	C	1.187779	0.182626	-0.394478
C677	C	0.731908	-0.285775	-0.868700
C678	C	1.231908	0.214225	-0.368700
H679	H	0.822518	-0.370743	-0.806148
H680	H	1.322518	0.129257	-0.306148
H681	H	0.745722	-0.425733	-0.851009
H682	H	1.245722	0.074267	-0.351009
H683	H	0.660154	-0.391841	-0.907104
H684	H	1.160154	0.108159	-0.407104
H685	H	0.651380	-0.302956	-0.918341
H686	H	1.151380	0.197044	-0.418341
H687	H	0.728175	-0.247965	-0.873480
H688	H	1.228175	0.252035	-0.373480
H689	H	0.666782	-0.268543	-0.268623
H690	H	1.166782	0.231457	0.231377
H691	H	0.978108	-0.164117	-0.473269
H692	H	1.478108	0.335883	0.026731
C693	C	0.821230	-0.276484	-1.052311
C694	C	1.321230	0.223516	-0.552311
C695	C	0.826277	-0.327556	-1.045852
C696	C	1.326277	0.172444	-0.545852
C697	C	0.782157	-0.359161	-1.071631
C698	C	1.282157	0.140839	-0.571631
C699	C	0.732991	-0.339694	-1.103870
C700	C	1.232991	0.160306	-0.603870
C701	C	0.727942	-0.288620	-1.110331
C702	C	1.227942	0.211380	-0.610331
C703	C	0.772061	-0.257014	-1.084552
C704	C	1.272061	0.242986	-0.584552
H705	H	0.862675	-0.341969	-1.021985
H706	H	1.362675	0.158031	-0.521985
H707	H	0.785895	-0.396970	-1.066847
H708	H	1.285895	0.103030	-0.566847
H709	H	0.700331	-0.363090	-1.122953
H710	H	1.200331	0.136910	-0.622953
H711	H	0.691544	-0.274207	-1.134197
H712	H	1.191544	0.225793	-0.634197
H713	H	0.768323	-0.219206	-1.089335
H714	H	1.268323	0.280794	-0.589335
C715	C	0.474437	-0.223875	-0.301633
C716	C	0.974437	0.276125	0.198367
C717	C	0.438504	-0.227831	-0.346160
C718	C	0.938504	0.272169	0.153840
C719	C	0.474546	-0.231796	-0.390669
C720	C	0.974546	0.268204	0.109331
C721	C	0.546521	-0.231804	-0.390649
C722	C	1.046521	0.268196	0.109351
C723	C	0.582458	-0.227847	-0.346120
C724	C	1.082458	0.272153	0.153880
C725	C	0.546416	-0.223883	-0.301611
C726	C	1.046416	0.276117	0.198389
H727	H	0.385220	-0.227825	-0.346176
H728	H	0.885220	0.272175	0.153824
H729	H	0.447943	-0.234724	-0.423632
H730	H	0.947943	0.265276	0.076368
H731	H	0.573202	-0.234738	-0.423597
H732	H	1.073202	0.265262	0.076403
H733	H	0.635742	-0.227853	-0.346104
H734	H	1.135742	0.272147	0.153896
H735	H	0.573019	-0.220955	-0.268648
H736	H	1.073019	0.279045	0.231352
H737	H	0.832463	-0.387351	-0.268701
H738	H	1.332463	0.112649	0.231299
H739	H	0.346357	-0.222828	-0.290102
H740	H	0.846357	0.277172	0.209898
H741	H	0.792537	-0.743951	-0.297436
H742	H	1.292537	-0.243951	0.202564
H743	H	1.018204	-0.688162	-0.135918
H744	H	1.518204	-0.188162	0.364082
H745	H	0.263146	-0.268484	-0.268730
H746	H	0.763146	0.231516	0.231270
H747	H	0.144439	-0.268461	-0.268764
H748	H	0.644439	0.231539	0.231236
H749	H	1.018258	-0.135305	-0.829863
H750	H	1.518258	0.364695	-0.329863
H751	H	1.018243	-0.135333	-0.689104
H752	H	1.518243	0.364667	-0.189104
H753	H	0.144477	-0.164050	-0.164703
H754	H	0.644477	0.335950	0.335297
H755	H	0.832670	-0.268292	-0.960505
H756	H	1.332670	0.231708	-0.460505
H757	H	0.978249	-1.044777	-0.164645
H758	H	1.478249	-0.544777	0.335355
