data_image0
_chemical_formula_structural       Zn6O18N6H12C18H6C12H6C6H6C6N6H12C6H12C6H12C6H12C6H12C3H6Zn6O18N6H12C18H6C12H6C6H6C6N6H12C6H12C6H12C6H12C6H12C3H6Zn6O18N6H12C18H6C12H6C6H6C6N6H12C6H12C6H12C6H12C6H12C3H6Zn6O18N6H12C18H6C12H6C6H6C6N6H12C6H12C6H12C6H12C6H12C3H6Zn6O18N6H12C18H6C12H6C6H6C6N6H12C6H12C6H12C6H12C6H12C3H6Zn6O18N6H12C18H6C12H6C6H6C6N6H12C6H12C6H12C6H12C6H12C3H6Zn6O18N6H12C18H6C12H6C6H6C6N6H12C6H12C6H12C6H12C6H12C3H6Zn6O18N6H12C18H6C12H6C6H6C6N6H12C6H12C6H12C6H12C6H12C3H6Zn6O18N6H12C18H6C12H6C6H6C6N6H12C6H12C6H12C6H12C6H12C3H6Zn6O18N6H12C18H6C12H6C6H6C6N6H12C6H12C6H12C6H12C6H12C3H6Zn6O18N6H12C18H6C12H6C6H6C6N6H12C6H12C6H12C6H12C6H12C3H6Zn6O18N6H12C18H6C12H6C6H6C6N6H12C6H12C6H12C6H12C6H12C3H6Zn6O18N6H12C18H6C12H6C6H6C6N6H12C6H12C6H12C6H12C6H12C3H6Zn6O18N6H12C18H6C12H6C6H6C6N6H12C6H12C6H12C6H12C6H12C3H6Zn6O18N6H12C18H6C12H6C6H6C6N6H12C6H12C6H12C6H12C6H12C3H6Zn6O18N6H12C18H6C12H6C6H6C6N6H12C6H12C6H12C6H12C6H12C3H6Zn6O18N6H12C18H6C12H6C6H6C6N6H12C6H12C6H12C6H12C6H12C3H6Zn6O18N6H12C18H6C12H6C6H6C6N6H12C6H12C6H12C6H12C6H12C3H6Zn6O18N6H12C18H6C12H6C6H6C6N6H12C6H12C6H12C6H12C6H12C3H6Zn6O18N6H12C18H6C12H6C6H6C6N6H12C6H12C6H12C6H12C6H12C3H6
_chemical_formula_sum              "Zn120 O360 N240 H1920 C1380"
_cell_length_a       43.2906
_cell_length_b       43.2906
_cell_length_c       34.0495
_cell_angle_alpha    90
_cell_angle_beta     90
_cell_angle_gamma    120

_space_group_name_H-M_alt    "P 1"
_space_group_IT_number       1

loop_
  _space_group_symop_operation_xyz
  'x, y, z'

loop_
  _atom_site_type_symbol
  _atom_site_label
  _atom_site_symmetry_multiplicity
  _atom_site_fract_x
  _atom_site_fract_y
  _atom_site_fract_z
  _atom_site_occupancy
  Zn  Zn1       1.0  0.16347  0.30299  0.10346  1.0000
  Zn  Zn2       1.0  0.19701  0.36048  0.17013  1.0000
  Zn  Zn3       1.0  0.13952  0.33653  0.03680  1.0000
  Zn  Zn4       1.0  0.30299  0.16347  0.09654  1.0000
  Zn  Zn5       1.0  0.36048  0.19701  0.02987  1.0000
  Zn  Zn6       1.0  0.33653  0.13952  0.16320  1.0000
  O   O1        1.0  0.20666  0.32560  0.14008  1.0000
  O   O2        1.0  0.17440  0.38106  0.00675  1.0000
  O   O3        1.0  0.11894  0.29334  0.07341  1.0000
  O   O4        1.0  0.32560  0.20666  0.05992  1.0000
  O   O5        1.0  0.38106  0.17440  0.19325  1.0000
  O   O6        1.0  0.29334  0.11894  0.12659  1.0000
  O   O7        1.0  0.17541  0.31877  0.01196  1.0000
  O   O8        1.0  0.18122  0.35663  0.07863  1.0000
  O   O9        1.0  0.14336  0.32459  0.14529  1.0000
  O   O10       1.0  0.31877  0.17541  0.18804  1.0000
  O   O11       1.0  0.35664  0.18123  0.12137  1.0000
  O   O12       1.0  0.32459  0.14336  0.05471  1.0000
  O   O13       1.0  0.18762  0.29136  0.05912  1.0000
  O   O14       1.0  0.20864  0.39626  0.12579  1.0000
  O   O15       1.0  0.10374  0.31238  0.19245  1.0000
  O   O16       1.0  0.29136  0.18762  0.14088  1.0000
  O   O17       1.0  0.39626  0.20864  0.07421  1.0000
  O   O18       1.0  0.31238  0.10374  0.00755  1.0000
  N   N1        1.0  0.14190  0.25035  0.12576  1.0000
  N   N2        1.0  0.24965  0.39155  0.19243  1.0000
  N   N3        1.0  0.10845  0.35810  0.05909  1.0000
  N   N4        1.0  0.25035  0.14190  0.07424  1.0000
  N   N5        1.0  0.39155  0.24965  0.00757  1.0000
  N   N6        1.0  0.35810  0.10845  0.14091  1.0000
  H   H1        1.0  0.12800  0.23543  0.10635  1.0000
  H   H2        1.0  0.26457  0.39257  0.17302  1.0000
  H   H3        1.0  0.10743  0.37200  0.03968  1.0000
  H   H4        1.0  0.23543  0.12800  0.09365  1.0000
  H   H5        1.0  0.39257  0.26457  0.02698  1.0000
  H   H6        1.0  0.37200  0.10743  0.16032  1.0000
  H   H7        1.0  0.16059  0.24650  0.12875  1.0000
  H   H8        1.0  0.25350  0.41409  0.19541  1.0000
  H   H9        1.0  0.08591  0.33941  0.06208  1.0000
  H   H10       1.0  0.24650  0.16059  0.07125  1.0000
  H   H11       1.0  0.41409  0.25350  0.00459  1.0000
  H   H12       1.0  0.33941  0.08591  0.13792  1.0000
  C   C1        1.0  0.22040  0.30770  0.15760  1.0000
  C   C2        1.0  0.19230  0.41270  0.02427  1.0000
  C   C3        1.0  0.08730  0.27960  0.09093  1.0000
  C   C4        1.0  0.30770  0.22040  0.04240  1.0000
  C   C5        1.0  0.41270  0.19230  0.17573  1.0000
  C   C6        1.0  0.27960  0.08730  0.10907  1.0000
  C   C7        1.0  0.21480  0.29715  0.19770  1.0000
  C   C8        1.0  0.20285  0.41765  0.06437  1.0000
  C   C9        1.0  0.08235  0.28520  0.13103  1.0000
  C   C10       1.0  0.29715  0.21480  0.00230  1.0000
  C   C11       1.0  0.41765  0.20285  0.13563  1.0000
  C   C12       1.0  0.28520  0.08235  0.06897  1.0000
  C   C13       1.0  0.23180  0.27985  0.01314  1.0000
  C   C14       1.0  0.22015  0.45195  0.07981  1.0000
  C   C15       1.0  0.04805  0.26820  0.14647  1.0000
  C   C16       1.0  0.27985  0.23180  0.18686  1.0000
  C   C17       1.0  0.45195  0.22015  0.12019  1.0000
  C   C18       1.0  0.26820  0.04805  0.05353  1.0000
  H   H13       1.0  0.22806  0.27308  0.04002  1.0000
  H   H14       1.0  0.22692  0.45498  0.10669  1.0000
  H   H15       1.0  0.04502  0.27194  0.17336  1.0000
  H   H16       1.0  0.27308  0.22806  0.15998  1.0000
  H   H17       1.0  0.45498  0.22692  0.09331  1.0000
  H   H18       1.0  0.27194  0.04502  0.02664  1.0000
  C   C19       1.0  0.25405  0.27195  0.19124  1.0000
  C   C20       1.0  0.22805  0.48210  0.05791  1.0000
  C   C21       1.0  0.01790  0.24595  0.12457  1.0000
  C   C22       1.0  0.27195  0.25405  0.00876  1.0000
  C   C23       1.0  0.48210  0.22805  0.14209  1.0000
  C   C24       1.0  0.24595  0.01790  0.07543  1.0000
  C   C25       1.0  0.25860  0.28175  0.15170  1.0000
  C   C26       1.0  0.21825  0.47685  0.01837  1.0000
  C   C27       1.0  0.02315  0.24140  0.08503  1.0000
  C   C28       1.0  0.28175  0.25860  0.04830  1.0000
  C   C29       1.0  0.47685  0.21825  0.18163  1.0000
  C   C30       1.0  0.24140  0.02315  0.11497  1.0000
  H   H19       1.0  0.27322  0.27633  0.13565  1.0000
  H   H20       1.0  0.22367  0.49688  0.00232  1.0000
  H   H21       1.0  0.00312  0.22678  0.06899  1.0000
  H   H22       1.0  0.27633  0.27322  0.06435  1.0000
  H   H23       1.0  0.49688  0.22366  0.19768  1.0000
  H   H24       1.0  0.22678  0.00312  0.13101  1.0000
  C   C31       1.0  0.24215  0.29920  0.13538  1.0000
  C   C32       1.0  0.20080  0.44295  0.00205  1.0000
  C   C33       1.0  0.05705  0.25785  0.06871  1.0000
  C   C34       1.0  0.29920  0.24215  0.06462  1.0000
  C   C35       1.0  0.44295  0.20080  0.19795  1.0000
  C   C36       1.0  0.25785  0.05705  0.13129  1.0000
  H   H25       1.0  0.24582  0.30549  0.10837  1.0000
  H   H26       1.0  0.19451  0.44033  0.17504  1.0000
  H   H27       1.0  0.05967  0.25418  0.04170  1.0000
  H   H28       1.0  0.30549  0.24582  0.09163  1.0000
  H   H29       1.0  0.44033  0.19451  0.02496  1.0000
  H   H30       1.0  0.25418  0.05967  0.15830  1.0000
  C   C37       1.0  0.19100  0.30295  0.02468  1.0000
  C   C38       1.0  0.19705  0.38805  0.09135  1.0000
  C   C39       1.0  0.11195  0.30900  0.15801  1.0000
  C   C40       1.0  0.30295  0.19100  0.17532  1.0000
  C   C41       1.0  0.38805  0.19705  0.10865  1.0000
  C   C42       1.0  0.30900  0.11195  0.04199  1.0000
  N   N7        1.0  0.16995  0.20745  0.15580  1.0000
  N   N8        1.0  0.29255  0.46250  0.02247  1.0000
  N   N9        1.0  0.03750  0.33005  0.08913  1.0000
  N   N10       1.0  0.20745  0.16995  0.04420  1.0000
  N   N11       1.0  0.46250  0.29255  0.17753  1.0000
  N   N12       1.0  0.33005  0.03750  0.11087  1.0000
  H   H31       1.0  0.17166  0.22635  0.14221  1.0000
  H   H32       1.0  0.27365  0.44531  0.00887  1.0000
  H   H33       1.0  0.05469  0.32834  0.07554  1.0000
  H   H34       1.0  0.22635  0.17166  0.05779  1.0000
  H   H35       1.0  0.44531  0.27365  0.19113  1.0000
  H   H36       1.0  0.32834  0.05469  0.12446  1.0000
  H   H37       1.0  0.19199  0.21426  0.16564  1.0000
  H   H38       1.0  0.28574  0.47773  0.03230  1.0000
  H   H39       1.0  0.02227  0.30801  0.09897  1.0000
  H   H40       1.0  0.21426  0.19199  0.03436  1.0000
  H   H41       1.0  0.47773  0.28574  0.16770  1.0000
  H   H42       1.0  0.30801  0.02227  0.10103  1.0000
  C   C43       1.0  0.12105  0.23795  0.16182  1.0000
  C   C44       1.0  0.26205  0.38310  0.02849  1.0000
  C   C45       1.0  0.11690  0.37895  0.09515  1.0000
  C   C46       1.0  0.23795  0.12105  0.03818  1.0000
  C   C47       1.0  0.38310  0.26205  0.17151  1.0000
  C   C48       1.0  0.37895  0.11690  0.10485  1.0000
  H   H43       1.0  0.09871  0.23858  0.15789  1.0000
  H   H44       1.0  0.26142  0.36012  0.02456  1.0000
  H   H45       1.0  0.13988  0.40129  0.09123  1.0000
  H   H46       1.0  0.23858  0.09871  0.04211  1.0000
  H   H47       1.0  0.36012  0.26142  0.17544  1.0000
  H   H48       1.0  0.40129  0.13988  0.10877  1.0000
  H   H49       1.0  0.13460  0.25517  0.18295  1.0000
  H   H50       1.0  0.24483  0.37944  0.04961  1.0000
  H   H51       1.0  0.12056  0.36540  0.11628  1.0000
  H   H52       1.0  0.25517  0.13460  0.01705  1.0000
  H   H53       1.0  0.37944  0.24483  0.15039  1.0000
  H   H54       1.0  0.36540  0.12056  0.08372  1.0000
  C   C49       1.0  0.11120  0.20095  0.17604  1.0000
  C   C50       1.0  0.29905  0.41025  0.04271  1.0000
  C   C51       1.0  0.08975  0.38880  0.10937  1.0000
  C   C52       1.0  0.20095  0.11120  0.02396  1.0000
  C   C53       1.0  0.41025  0.29905  0.15729  1.0000
  C   C54       1.0  0.38880  0.08975  0.09063  1.0000
  H   H55       1.0  0.09974  0.18356  0.15445  1.0000
  H   H56       1.0  0.31644  0.41619  0.02112  1.0000
  H   H57       1.0  0.08381  0.40026  0.08778  1.0000
  H   H58       1.0  0.18356  0.09974  0.04555  1.0000
  H   H59       1.0  0.41619  0.31644  0.17888  1.0000
  H   H60       1.0  0.40025  0.08381  0.11222  1.0000
  H   H61       1.0  0.09394  0.19392  0.19793  1.0000
  H   H62       1.0  0.30608  0.40002  0.06460  1.0000
  H   H63       1.0  0.09998  0.40606  0.13127  1.0000
  H   H64       1.0  0.19392  0.09394  0.00207  1.0000
  H   H65       1.0  0.40002  0.30608  0.13540  1.0000
  H   H66       1.0  0.40606  0.09998  0.06873  1.0000
  C   C55       1.0  0.14495  0.20020  0.19020  1.0000
  C   C56       1.0  0.29980  0.44475  0.05687  1.0000
  C   C57       1.0  0.05525  0.35505  0.12353  1.0000
  C   C58       1.0  0.20020  0.14495  0.00980  1.0000
  C   C59       1.0  0.44475  0.29980  0.14313  1.0000
  C   C60       1.0  0.35505  0.05525  0.07647  1.0000
  H   H67       1.0  0.15726  0.21856  0.01072  1.0000
  H   H68       1.0  0.28144  0.43871  0.07738  1.0000
  H   H69       1.0  0.06129  0.34274  0.14405  1.0000
  H   H70       1.0  0.21856  0.15726  0.18928  1.0000
  H   H71       1.0  0.43871  0.28144  0.12262  1.0000
  H   H72       1.0  0.34274  0.06129  0.05595  1.0000
  H   H73       1.0  0.13794  0.17661  0.00169  1.0000
  H   H74       1.0  0.32339  0.46133  0.06836  1.0000
  H   H75       1.0  0.03867  0.36206  0.13502  1.0000
  H   H76       1.0  0.17661  0.13794  0.19831  1.0000
  H   H77       1.0  0.46133  0.32339  0.13164  1.0000
  H   H78       1.0  0.36206  0.03867  0.06498  1.0000
  C   C61       1.0  0.16125  0.17975  0.12900  1.0000
  C   C62       1.0  0.32025  0.48150  0.19567  1.0000
  C   C63       1.0  0.01850  0.33875  0.06233  1.0000
  C   C64       1.0  0.17975  0.16125  0.07100  1.0000
  C   C65       1.0  0.48150  0.32025  0.00433  1.0000
  C   C66       1.0  0.33875  0.01850  0.13767  1.0000
  H   H79       1.0  0.13879  0.17390  0.11541  1.0000
  H   H80       1.0  0.32610  0.46490  0.18208  1.0000
  H   H81       1.0  0.03510  0.36121  0.04874  1.0000
  H   H82       1.0  0.17390  0.13879  0.08459  1.0000
  H   H83       1.0  0.46490  0.32610  0.01792  1.0000
  H   H84       1.0  0.36121  0.03510  0.15126  1.0000
  H   H85       1.0  0.15740  0.15820  0.14341  1.0000
  H   H86       1.0  0.34180  0.49920  0.01007  1.0000
  H   H87       1.0  0.00080  0.34260  0.07674  1.0000
  H   H88       1.0  0.15820  0.15740  0.05659  1.0000
  H   H89       1.0  0.49920  0.34180  0.18993  1.0000
  H   H90       1.0  0.34260  0.00080  0.12326  1.0000
  C   C67       1.0  0.18975  0.18975  0.10000  1.0000
  C   C68       1.0  0.31025  0.00000  0.16667  1.0000
  C   C69       1.0  0.00000  0.31025  0.03333  1.0000
  H   H91       1.0  0.19441  0.21192  0.08651  1.0000
  H   H92       1.0  0.28808  0.48249  0.15317  1.0000
  H   H93       1.0  0.01751  0.30559  0.01984  1.0000
  H   H94       1.0  0.21192  0.19441  0.11349  1.0000
  H   H95       1.0  0.48249  0.28808  0.04683  1.0000
  H   H96       1.0  0.30559  0.01751  0.18016  1.0000
  Zn  Zn7       1.0  0.16347  0.30299  0.30346  1.0000
  Zn  Zn8       1.0  0.19701  0.36048  0.37013  1.0000
  Zn  Zn9       1.0  0.13952  0.33653  0.23680  1.0000
  Zn  Zn10      1.0  0.30299  0.16347  0.29654  1.0000
  Zn  Zn11      1.0  0.36048  0.19701  0.22987  1.0000
  Zn  Zn12      1.0  0.33653  0.13952  0.36320  1.0000
  O   O19       1.0  0.20666  0.32560  0.34008  1.0000
  O   O20       1.0  0.17440  0.38106  0.20675  1.0000
  O   O21       1.0  0.11894  0.29334  0.27341  1.0000
  O   O22       1.0  0.32560  0.20666  0.25992  1.0000
  O   O23       1.0  0.38106  0.17440  0.39325  1.0000
  O   O24       1.0  0.29334  0.11894  0.32659  1.0000
  O   O25       1.0  0.17541  0.31877  0.21196  1.0000
  O   O26       1.0  0.18122  0.35663  0.27863  1.0000
  O   O27       1.0  0.14336  0.32459  0.34529  1.0000
  O   O28       1.0  0.31877  0.17541  0.38804  1.0000
  O   O29       1.0  0.35664  0.18123  0.32137  1.0000
  O   O30       1.0  0.32459  0.14336  0.25471  1.0000
  O   O31       1.0  0.18762  0.29136  0.25912  1.0000
  O   O32       1.0  0.20864  0.39626  0.32579  1.0000
  O   O33       1.0  0.10374  0.31238  0.39245  1.0000
  O   O34       1.0  0.29136  0.18762  0.34088  1.0000
  O   O35       1.0  0.39626  0.20864  0.27421  1.0000
  O   O36       1.0  0.31238  0.10374  0.20755  1.0000
  N   N13       1.0  0.14190  0.25035  0.32576  1.0000
  N   N14       1.0  0.24965  0.39155  0.39243  1.0000
  N   N15       1.0  0.10845  0.35810  0.25909  1.0000
  N   N16       1.0  0.25035  0.14190  0.27424  1.0000
  N   N17       1.0  0.39155  0.24965  0.20757  1.0000
  N   N18       1.0  0.35810  0.10845  0.34091  1.0000
  H   H97       1.0  0.12800  0.23543  0.30635  1.0000
  H   H98       1.0  0.26457  0.39257  0.37302  1.0000
  H   H99       1.0  0.10743  0.37200  0.23968  1.0000
  H   H100      1.0  0.23543  0.12800  0.29365  1.0000
  H   H101      1.0  0.39257  0.26457  0.22698  1.0000
  H   H102      1.0  0.37200  0.10743  0.36032  1.0000
  H   H103      1.0  0.16059  0.24650  0.32875  1.0000
  H   H104      1.0  0.25350  0.41409  0.39541  1.0000
  H   H105      1.0  0.08591  0.33941  0.26208  1.0000
  H   H106      1.0  0.24650  0.16059  0.27125  1.0000
  H   H107      1.0  0.41409  0.25350  0.20459  1.0000
  H   H108      1.0  0.33941  0.08591  0.33792  1.0000
  C   C70       1.0  0.22040  0.30770  0.35760  1.0000
  C   C71       1.0  0.19230  0.41270  0.22427  1.0000
  C   C72       1.0  0.08730  0.27960  0.29093  1.0000
  C   C73       1.0  0.30770  0.22040  0.24240  1.0000
  C   C74       1.0  0.41270  0.19230  0.37573  1.0000
  C   C75       1.0  0.27960  0.08730  0.30907  1.0000
  C   C76       1.0  0.21480  0.29715  0.39770  1.0000
  C   C77       1.0  0.20285  0.41765  0.26437  1.0000
  C   C78       1.0  0.08235  0.28520  0.33103  1.0000
  C   C79       1.0  0.29715  0.21480  0.20230  1.0000
  C   C80       1.0  0.41765  0.20285  0.33563  1.0000
  C   C81       1.0  0.28520  0.08235  0.26897  1.0000
  C   C82       1.0  0.23180  0.27985  0.21314  1.0000
  C   C83       1.0  0.22015  0.45195  0.27981  1.0000
  C   C84       1.0  0.04805  0.26820  0.34647  1.0000
  C   C85       1.0  0.27985  0.23180  0.38686  1.0000
  C   C86       1.0  0.45195  0.22015  0.32019  1.0000
  C   C87       1.0  0.26820  0.04805  0.25353  1.0000
  H   H109      1.0  0.22806  0.27308  0.24002  1.0000
  H   H110      1.0  0.22692  0.45498  0.30669  1.0000
  H   H111      1.0  0.04502  0.27194  0.37336  1.0000
  H   H112      1.0  0.27308  0.22806  0.35998  1.0000
  H   H113      1.0  0.45498  0.22692  0.29331  1.0000
  H   H114      1.0  0.27194  0.04502  0.22664  1.0000
  C   C88       1.0  0.25405  0.27195  0.39124  1.0000
  C   C89       1.0  0.22805  0.48210  0.25791  1.0000
  C   C90       1.0  0.01790  0.24595  0.32457  1.0000
  C   C91       1.0  0.27195  0.25405  0.20876  1.0000
  C   C92       1.0  0.48210  0.22805  0.34209  1.0000
  C   C93       1.0  0.24595  0.01790  0.27543  1.0000
  C   C94       1.0  0.25860  0.28175  0.35170  1.0000
  C   C95       1.0  0.21825  0.47685  0.21837  1.0000
  C   C96       1.0  0.02315  0.24140  0.28503  1.0000
  C   C97       1.0  0.28175  0.25860  0.24830  1.0000
  C   C98       1.0  0.47685  0.21825  0.38163  1.0000
  C   C99       1.0  0.24140  0.02315  0.31497  1.0000
  H   H115      1.0  0.27322  0.27633  0.33565  1.0000
  H   H116      1.0  0.22367  0.49688  0.20232  1.0000
  H   H117      1.0  0.00312  0.22678  0.26899  1.0000
  H   H118      1.0  0.27633  0.27322  0.26435  1.0000
  H   H119      1.0  0.49688  0.22366  0.39768  1.0000
  H   H120      1.0  0.22678  0.00312  0.33101  1.0000
  C   C100      1.0  0.24215  0.29920  0.33538  1.0000
  C   C101      1.0  0.20080  0.44295  0.20205  1.0000
  C   C102      1.0  0.05705  0.25785  0.26871  1.0000
  C   C103      1.0  0.29920  0.24215  0.26462  1.0000
  C   C104      1.0  0.44295  0.20080  0.39795  1.0000
  C   C105      1.0  0.25785  0.05705  0.33129  1.0000
  H   H121      1.0  0.24582  0.30549  0.30837  1.0000
  H   H122      1.0  0.19451  0.44033  0.37504  1.0000
  H   H123      1.0  0.05967  0.25418  0.24170  1.0000
  H   H124      1.0  0.30549  0.24582  0.29163  1.0000
  H   H125      1.0  0.44033  0.19451  0.22496  1.0000
  H   H126      1.0  0.25418  0.05967  0.35830  1.0000
  C   C106      1.0  0.19100  0.30295  0.22468  1.0000
  C   C107      1.0  0.19705  0.38805  0.29135  1.0000
  C   C108      1.0  0.11195  0.30900  0.35801  1.0000
  C   C109      1.0  0.30295  0.19100  0.37532  1.0000
  C   C110      1.0  0.38805  0.19705  0.30865  1.0000
  C   C111      1.0  0.30900  0.11195  0.24199  1.0000
  N   N19       1.0  0.16995  0.20745  0.35580  1.0000
  N   N20       1.0  0.29255  0.46250  0.22247  1.0000
  N   N21       1.0  0.03750  0.33005  0.28913  1.0000
  N   N22       1.0  0.20745  0.16995  0.24420  1.0000
  N   N23       1.0  0.46250  0.29255  0.37753  1.0000
  N   N24       1.0  0.33005  0.03750  0.31087  1.0000
  H   H127      1.0  0.17166  0.22635  0.34221  1.0000
  H   H128      1.0  0.27365  0.44531  0.20887  1.0000
  H   H129      1.0  0.05469  0.32834  0.27554  1.0000
  H   H130      1.0  0.22635  0.17166  0.25779  1.0000
  H   H131      1.0  0.44531  0.27365  0.39113  1.0000
  H   H132      1.0  0.32834  0.05469  0.32446  1.0000
  H   H133      1.0  0.19199  0.21426  0.36564  1.0000
  H   H134      1.0  0.28574  0.47773  0.23230  1.0000
  H   H135      1.0  0.02227  0.30801  0.29897  1.0000
  H   H136      1.0  0.21426  0.19199  0.23437  1.0000
  H   H137      1.0  0.47773  0.28574  0.36770  1.0000
  H   H138      1.0  0.30801  0.02227  0.30103  1.0000
  C   C112      1.0  0.12105  0.23795  0.36182  1.0000
  C   C113      1.0  0.26205  0.38310  0.22849  1.0000
  C   C114      1.0  0.11690  0.37895  0.29515  1.0000
  C   C115      1.0  0.23795  0.12105  0.23818  1.0000
  C   C116      1.0  0.38310  0.26205  0.37151  1.0000
  C   C117      1.0  0.37895  0.11690  0.30485  1.0000
  H   H139      1.0  0.09871  0.23858  0.35789  1.0000
  H   H140      1.0  0.26142  0.36012  0.22456  1.0000
  H   H141      1.0  0.13988  0.40129  0.29123  1.0000
  H   H142      1.0  0.23858  0.09871  0.24211  1.0000
  H   H143      1.0  0.36012  0.26142  0.37544  1.0000
  H   H144      1.0  0.40129  0.13988  0.30877  1.0000
  H   H145      1.0  0.13460  0.25517  0.38295  1.0000
  H   H146      1.0  0.24483  0.37944  0.24961  1.0000
  H   H147      1.0  0.12056  0.36540  0.31628  1.0000
  H   H148      1.0  0.25517  0.13460  0.21705  1.0000
  H   H149      1.0  0.37944  0.24483  0.35039  1.0000
  H   H150      1.0  0.36540  0.12056  0.28372  1.0000
  C   C118      1.0  0.11120  0.20095  0.37604  1.0000
  C   C119      1.0  0.29905  0.41025  0.24271  1.0000
  C   C120      1.0  0.08975  0.38880  0.30937  1.0000
  C   C121      1.0  0.20095  0.11120  0.22396  1.0000
  C   C122      1.0  0.41025  0.29905  0.35729  1.0000
  C   C123      1.0  0.38880  0.08975  0.29063  1.0000
  H   H151      1.0  0.09974  0.18356  0.35445  1.0000
  H   H152      1.0  0.31644  0.41619  0.22112  1.0000
  H   H153      1.0  0.08381  0.40026  0.28778  1.0000
  H   H154      1.0  0.18356  0.09974  0.24555  1.0000
  H   H155      1.0  0.41619  0.31644  0.37888  1.0000
  H   H156      1.0  0.40025  0.08381  0.31222  1.0000
  H   H157      1.0  0.09394  0.19392  0.39793  1.0000
  H   H158      1.0  0.30608  0.40002  0.26460  1.0000
  H   H159      1.0  0.09998  0.40606  0.33127  1.0000
  H   H160      1.0  0.19392  0.09394  0.20207  1.0000
  H   H161      1.0  0.40002  0.30608  0.33540  1.0000
  H   H162      1.0  0.40606  0.09998  0.26873  1.0000
  C   C124      1.0  0.14495  0.20020  0.39020  1.0000
  C   C125      1.0  0.29980  0.44475  0.25687  1.0000
  C   C126      1.0  0.05525  0.35505  0.32353  1.0000
  C   C127      1.0  0.20020  0.14495  0.20980  1.0000
  C   C128      1.0  0.44475  0.29980  0.34313  1.0000
  C   C129      1.0  0.35505  0.05525  0.27647  1.0000
  H   H163      1.0  0.15726  0.21856  0.21072  1.0000
  H   H164      1.0  0.28144  0.43871  0.27738  1.0000
  H   H165      1.0  0.06129  0.34274  0.34405  1.0000
  H   H166      1.0  0.21856  0.15726  0.38928  1.0000
  H   H167      1.0  0.43871  0.28144  0.32262  1.0000
  H   H168      1.0  0.34274  0.06129  0.25595  1.0000
  H   H169      1.0  0.13794  0.17661  0.20169  1.0000
  H   H170      1.0  0.32339  0.46133  0.26836  1.0000
  H   H171      1.0  0.03867  0.36206  0.33502  1.0000
  H   H172      1.0  0.17661  0.13794  0.39831  1.0000
  H   H173      1.0  0.46133  0.32339  0.33164  1.0000
  H   H174      1.0  0.36206  0.03867  0.26498  1.0000
  C   C130      1.0  0.16125  0.17975  0.32900  1.0000
  C   C131      1.0  0.32025  0.48150  0.39567  1.0000
  C   C132      1.0  0.01850  0.33875  0.26233  1.0000
  C   C133      1.0  0.17975  0.16125  0.27100  1.0000
  C   C134      1.0  0.48150  0.32025  0.20433  1.0000
  C   C135      1.0  0.33875  0.01850  0.33767  1.0000
  H   H175      1.0  0.13879  0.17390  0.31541  1.0000
  H   H176      1.0  0.32610  0.46490  0.38208  1.0000
  H   H177      1.0  0.03510  0.36121  0.24874  1.0000
  H   H178      1.0  0.17390  0.13879  0.28459  1.0000
  H   H179      1.0  0.46490  0.32610  0.21792  1.0000
  H   H180      1.0  0.36121  0.03510  0.35126  1.0000
  H   H181      1.0  0.15740  0.15820  0.34341  1.0000
  H   H182      1.0  0.34180  0.49920  0.21007  1.0000
  H   H183      1.0  0.00080  0.34260  0.27674  1.0000
  H   H184      1.0  0.15820  0.15740  0.25659  1.0000
  H   H185      1.0  0.49920  0.34180  0.38993  1.0000
  H   H186      1.0  0.34260  0.00080  0.32326  1.0000
  C   C136      1.0  0.18975  0.18975  0.30000  1.0000
  C   C137      1.0  0.31025  0.00000  0.36667  1.0000
  C   C138      1.0  0.00000  0.31025  0.23333  1.0000
  H   H187      1.0  0.19441  0.21192  0.28651  1.0000
  H   H188      1.0  0.28808  0.48249  0.35317  1.0000
  H   H189      1.0  0.01751  0.30559  0.21984  1.0000
  H   H190      1.0  0.21192  0.19441  0.31349  1.0000
  H   H191      1.0  0.48249  0.28808  0.24683  1.0000
  H   H192      1.0  0.30559  0.01751  0.38016  1.0000
  Zn  Zn13      1.0  0.16347  0.30299  0.50346  1.0000
  Zn  Zn14      1.0  0.19701  0.36048  0.57013  1.0000
  Zn  Zn15      1.0  0.13952  0.33653  0.43680  1.0000
  Zn  Zn16      1.0  0.30299  0.16347  0.49654  1.0000
  Zn  Zn17      1.0  0.36048  0.19701  0.42987  1.0000
  Zn  Zn18      1.0  0.33653  0.13952  0.56320  1.0000
  O   O37       1.0  0.20666  0.32560  0.54008  1.0000
  O   O38       1.0  0.17440  0.38106  0.40675  1.0000
  O   O39       1.0  0.11894  0.29334  0.47341  1.0000
  O   O40       1.0  0.32560  0.20666  0.45992  1.0000
  O   O41       1.0  0.38106  0.17440  0.59325  1.0000
  O   O42       1.0  0.29334  0.11894  0.52659  1.0000
  O   O43       1.0  0.17541  0.31877  0.41196  1.0000
  O   O44       1.0  0.18122  0.35663  0.47863  1.0000
  O   O45       1.0  0.14336  0.32459  0.54529  1.0000
  O   O46       1.0  0.31877  0.17541  0.58804  1.0000
  O   O47       1.0  0.35664  0.18123  0.52137  1.0000
  O   O48       1.0  0.32459  0.14336  0.45471  1.0000
  O   O49       1.0  0.18762  0.29136  0.45912  1.0000
  O   O50       1.0  0.20864  0.39626  0.52579  1.0000
  O   O51       1.0  0.10374  0.31238  0.59245  1.0000
  O   O52       1.0  0.29136  0.18762  0.54088  1.0000
  O   O53       1.0  0.39626  0.20864  0.47421  1.0000
  O   O54       1.0  0.31238  0.10374  0.40755  1.0000
  N   N25       1.0  0.14190  0.25035  0.52576  1.0000
  N   N26       1.0  0.24965  0.39155  0.59243  1.0000
  N   N27       1.0  0.10845  0.35810  0.45909  1.0000
  N   N28       1.0  0.25035  0.14190  0.47424  1.0000
  N   N29       1.0  0.39155  0.24965  0.40757  1.0000
  N   N30       1.0  0.35810  0.10845  0.54091  1.0000
  H   H193      1.0  0.12800  0.23543  0.50635  1.0000
  H   H194      1.0  0.26457  0.39257  0.57302  1.0000
  H   H195      1.0  0.10743  0.37200  0.43968  1.0000
  H   H196      1.0  0.23543  0.12800  0.49365  1.0000
  H   H197      1.0  0.39257  0.26457  0.42698  1.0000
  H   H198      1.0  0.37200  0.10743  0.56032  1.0000
  H   H199      1.0  0.16059  0.24650  0.52875  1.0000
  H   H200      1.0  0.25350  0.41409  0.59541  1.0000
  H   H201      1.0  0.08591  0.33941  0.46208  1.0000
  H   H202      1.0  0.24650  0.16059  0.47125  1.0000
  H   H203      1.0  0.41409  0.25350  0.40459  1.0000
  H   H204      1.0  0.33941  0.08591  0.53792  1.0000
  C   C139      1.0  0.22040  0.30770  0.55760  1.0000
  C   C140      1.0  0.19230  0.41270  0.42427  1.0000
  C   C141      1.0  0.08730  0.27960  0.49093  1.0000
  C   C142      1.0  0.30770  0.22040  0.44240  1.0000
  C   C143      1.0  0.41270  0.19230  0.57573  1.0000
  C   C144      1.0  0.27960  0.08730  0.50907  1.0000
  C   C145      1.0  0.21480  0.29715  0.59770  1.0000
  C   C146      1.0  0.20285  0.41765  0.46437  1.0000
  C   C147      1.0  0.08235  0.28520  0.53103  1.0000
  C   C148      1.0  0.29715  0.21480  0.40230  1.0000
  C   C149      1.0  0.41765  0.20285  0.53563  1.0000
  C   C150      1.0  0.28520  0.08235  0.46897  1.0000
  C   C151      1.0  0.23180  0.27985  0.41314  1.0000
  C   C152      1.0  0.22015  0.45195  0.47981  1.0000
  C   C153      1.0  0.04805  0.26820  0.54647  1.0000
  C   C154      1.0  0.27985  0.23180  0.58686  1.0000
  C   C155      1.0  0.45195  0.22015  0.52019  1.0000
  C   C156      1.0  0.26820  0.04805  0.45353  1.0000
  H   H205      1.0  0.22806  0.27308  0.44002  1.0000
  H   H206      1.0  0.22692  0.45498  0.50669  1.0000
  H   H207      1.0  0.04502  0.27194  0.57336  1.0000
  H   H208      1.0  0.27308  0.22806  0.55998  1.0000
  H   H209      1.0  0.45498  0.22692  0.49331  1.0000
  H   H210      1.0  0.27194  0.04502  0.42664  1.0000
  C   C157      1.0  0.25405  0.27195  0.59124  1.0000
  C   C158      1.0  0.22805  0.48210  0.45791  1.0000
  C   C159      1.0  0.01790  0.24595  0.52457  1.0000
  C   C160      1.0  0.27195  0.25405  0.40876  1.0000
  C   C161      1.0  0.48210  0.22805  0.54209  1.0000
  C   C162      1.0  0.24595  0.01790  0.47543  1.0000
  C   C163      1.0  0.25860  0.28175  0.55170  1.0000
  C   C164      1.0  0.21825  0.47685  0.41837  1.0000
  C   C165      1.0  0.02315  0.24140  0.48503  1.0000
  C   C166      1.0  0.28175  0.25860  0.44830  1.0000
  C   C167      1.0  0.47685  0.21825  0.58163  1.0000
  C   C168      1.0  0.24140  0.02315  0.51497  1.0000
  H   H211      1.0  0.27322  0.27633  0.53565  1.0000
  H   H212      1.0  0.22367  0.49688  0.40232  1.0000
  H   H213      1.0  0.00312  0.22678  0.46899  1.0000
  H   H214      1.0  0.27633  0.27322  0.46435  1.0000
  H   H215      1.0  0.49688  0.22366  0.59768  1.0000
  H   H216      1.0  0.22678  0.00312  0.53101  1.0000
  C   C169      1.0  0.24215  0.29920  0.53538  1.0000
  C   C170      1.0  0.20080  0.44295  0.40205  1.0000
  C   C171      1.0  0.05705  0.25785  0.46871  1.0000
  C   C172      1.0  0.29920  0.24215  0.46462  1.0000
  C   C173      1.0  0.44295  0.20080  0.59795  1.0000
  C   C174      1.0  0.25785  0.05705  0.53129  1.0000
  H   H217      1.0  0.24582  0.30549  0.50837  1.0000
  H   H218      1.0  0.19451  0.44033  0.57504  1.0000
  H   H219      1.0  0.05967  0.25418  0.44170  1.0000
  H   H220      1.0  0.30549  0.24582  0.49163  1.0000
  H   H221      1.0  0.44033  0.19451  0.42496  1.0000
  H   H222      1.0  0.25418  0.05967  0.55830  1.0000
  C   C175      1.0  0.19100  0.30295  0.42468  1.0000
  C   C176      1.0  0.19705  0.38805  0.49135  1.0000
  C   C177      1.0  0.11195  0.30900  0.55801  1.0000
  C   C178      1.0  0.30295  0.19100  0.57532  1.0000
  C   C179      1.0  0.38805  0.19705  0.50865  1.0000
  C   C180      1.0  0.30900  0.11195  0.44199  1.0000
  N   N31       1.0  0.16995  0.20745  0.55580  1.0000
  N   N32       1.0  0.29255  0.46250  0.42247  1.0000
  N   N33       1.0  0.03750  0.33005  0.48913  1.0000
  N   N34       1.0  0.20745  0.16995  0.44420  1.0000
  N   N35       1.0  0.46250  0.29255  0.57753  1.0000
  N   N36       1.0  0.33005  0.03750  0.51087  1.0000
  H   H223      1.0  0.17166  0.22635  0.54221  1.0000
  H   H224      1.0  0.27365  0.44531  0.40887  1.0000
  H   H225      1.0  0.05469  0.32834  0.47554  1.0000
  H   H226      1.0  0.22635  0.17166  0.45779  1.0000
  H   H227      1.0  0.44531  0.27365  0.59113  1.0000
  H   H228      1.0  0.32834  0.05469  0.52446  1.0000
  H   H229      1.0  0.19199  0.21426  0.56563  1.0000
  H   H230      1.0  0.28574  0.47773  0.43230  1.0000
  H   H231      1.0  0.02227  0.30801  0.49897  1.0000
  H   H232      1.0  0.21426  0.19199  0.43437  1.0000
  H   H233      1.0  0.47773  0.28574  0.56770  1.0000
  H   H234      1.0  0.30801  0.02227  0.50103  1.0000
  C   C181      1.0  0.12105  0.23795  0.56182  1.0000
  C   C182      1.0  0.26205  0.38310  0.42849  1.0000
  C   C183      1.0  0.11690  0.37895  0.49515  1.0000
  C   C184      1.0  0.23795  0.12105  0.43818  1.0000
  C   C185      1.0  0.38310  0.26205  0.57151  1.0000
  C   C186      1.0  0.37895  0.11690  0.50485  1.0000
  H   H235      1.0  0.09871  0.23858  0.55789  1.0000
  H   H236      1.0  0.26142  0.36012  0.42456  1.0000
  H   H237      1.0  0.13988  0.40129  0.49123  1.0000
  H   H238      1.0  0.23858  0.09871  0.44211  1.0000
  H   H239      1.0  0.36012  0.26142  0.57544  1.0000
  H   H240      1.0  0.40129  0.13988  0.50877  1.0000
  H   H241      1.0  0.13460  0.25517  0.58295  1.0000
  H   H242      1.0  0.24483  0.37944  0.44961  1.0000
  H   H243      1.0  0.12056  0.36540  0.51628  1.0000
  H   H244      1.0  0.25517  0.13460  0.41705  1.0000
  H   H245      1.0  0.37944  0.24483  0.55039  1.0000
  H   H246      1.0  0.36540  0.12056  0.48372  1.0000
  C   C187      1.0  0.11120  0.20095  0.57604  1.0000
  C   C188      1.0  0.29905  0.41025  0.44271  1.0000
  C   C189      1.0  0.08975  0.38880  0.50937  1.0000
  C   C190      1.0  0.20095  0.11120  0.42396  1.0000
  C   C191      1.0  0.41025  0.29905  0.55729  1.0000
  C   C192      1.0  0.38880  0.08975  0.49063  1.0000
  H   H247      1.0  0.09974  0.18356  0.55445  1.0000
  H   H248      1.0  0.31644  0.41619  0.42112  1.0000
  H   H249      1.0  0.08381  0.40026  0.48778  1.0000
  H   H250      1.0  0.18356  0.09974  0.44555  1.0000
  H   H251      1.0  0.41619  0.31644  0.57888  1.0000
  H   H252      1.0  0.40025  0.08381  0.51222  1.0000
  H   H253      1.0  0.09394  0.19392  0.59793  1.0000
  H   H254      1.0  0.30608  0.40002  0.46460  1.0000
  H   H255      1.0  0.09998  0.40606  0.53127  1.0000
  H   H256      1.0  0.19392  0.09394  0.40207  1.0000
  H   H257      1.0  0.40002  0.30608  0.53540  1.0000
  H   H258      1.0  0.40606  0.09998  0.46873  1.0000
  C   C193      1.0  0.14495  0.20020  0.59020  1.0000
  C   C194      1.0  0.29980  0.44475  0.45687  1.0000
  C   C195      1.0  0.05525  0.35505  0.52353  1.0000
  C   C196      1.0  0.20020  0.14495  0.40980  1.0000
  C   C197      1.0  0.44475  0.29980  0.54313  1.0000
  C   C198      1.0  0.35505  0.05525  0.47647  1.0000
  H   H259      1.0  0.15726  0.21856  0.41072  1.0000
  H   H260      1.0  0.28144  0.43871  0.47738  1.0000
  H   H261      1.0  0.06129  0.34274  0.54405  1.0000
  H   H262      1.0  0.21856  0.15726  0.58928  1.0000
  H   H263      1.0  0.43871  0.28144  0.52262  1.0000
  H   H264      1.0  0.34274  0.06129  0.45595  1.0000
  H   H265      1.0  0.13794  0.17661  0.40169  1.0000
  H   H266      1.0  0.32339  0.46133  0.46836  1.0000
  H   H267      1.0  0.03867  0.36206  0.53502  1.0000
  H   H268      1.0  0.17661  0.13794  0.59831  1.0000
  H   H269      1.0  0.46133  0.32339  0.53164  1.0000
  H   H270      1.0  0.36206  0.03867  0.46498  1.0000
  C   C199      1.0  0.16125  0.17975  0.52900  1.0000
  C   C200      1.0  0.32025  0.48150  0.59567  1.0000
  C   C201      1.0  0.01850  0.33875  0.46233  1.0000
  C   C202      1.0  0.17975  0.16125  0.47100  1.0000
  C   C203      1.0  0.48150  0.32025  0.40433  1.0000
  C   C204      1.0  0.33875  0.01850  0.53767  1.0000
  H   H271      1.0  0.13879  0.17390  0.51541  1.0000
  H   H272      1.0  0.32610  0.46490  0.58208  1.0000
  H   H273      1.0  0.03510  0.36121  0.44874  1.0000
  H   H274      1.0  0.17390  0.13879  0.48459  1.0000
  H   H275      1.0  0.46490  0.32610  0.41792  1.0000
  H   H276      1.0  0.36121  0.03510  0.55126  1.0000
  H   H277      1.0  0.15740  0.15820  0.54341  1.0000
  H   H278      1.0  0.34180  0.49920  0.41007  1.0000
  H   H279      1.0  0.00080  0.34260  0.47674  1.0000
  H   H280      1.0  0.15820  0.15740  0.45659  1.0000
  H   H281      1.0  0.49920  0.34180  0.58993  1.0000
  H   H282      1.0  0.34260  0.00080  0.52326  1.0000
  C   C205      1.0  0.18975  0.18975  0.50000  1.0000
  C   C206      1.0  0.31025  0.00000  0.56667  1.0000
  C   C207      1.0  0.00000  0.31025  0.43333  1.0000
  H   H283      1.0  0.19441  0.21192  0.48651  1.0000
  H   H284      1.0  0.28808  0.48249  0.55317  1.0000
  H   H285      1.0  0.01751  0.30559  0.41984  1.0000
  H   H286      1.0  0.21192  0.19441  0.51349  1.0000
  H   H287      1.0  0.48249  0.28808  0.44683  1.0000
  H   H288      1.0  0.30559  0.01751  0.58016  1.0000
  Zn  Zn19      1.0  0.16347  0.30299  0.70346  1.0000
  Zn  Zn20      1.0  0.19701  0.36048  0.77013  1.0000
  Zn  Zn21      1.0  0.13952  0.33653  0.63680  1.0000
  Zn  Zn22      1.0  0.30299  0.16347  0.69654  1.0000
  Zn  Zn23      1.0  0.36048  0.19701  0.62987  1.0000
  Zn  Zn24      1.0  0.33653  0.13952  0.76320  1.0000
  O   O55       1.0  0.20666  0.32560  0.74008  1.0000
  O   O56       1.0  0.17440  0.38106  0.60675  1.0000
  O   O57       1.0  0.11894  0.29334  0.67341  1.0000
  O   O58       1.0  0.32560  0.20666  0.65992  1.0000
  O   O59       1.0  0.38106  0.17440  0.79325  1.0000
  O   O60       1.0  0.29334  0.11894  0.72659  1.0000
  O   O61       1.0  0.17541  0.31877  0.61196  1.0000
  O   O62       1.0  0.18122  0.35663  0.67863  1.0000
  O   O63       1.0  0.14336  0.32459  0.74529  1.0000
  O   O64       1.0  0.31877  0.17541  0.78804  1.0000
  O   O65       1.0  0.35664  0.18123  0.72137  1.0000
  O   O66       1.0  0.32459  0.14336  0.65471  1.0000
  O   O67       1.0  0.18762  0.29136  0.65912  1.0000
  O   O68       1.0  0.20864  0.39626  0.72579  1.0000
  O   O69       1.0  0.10374  0.31238  0.79245  1.0000
  O   O70       1.0  0.29136  0.18762  0.74088  1.0000
  O   O71       1.0  0.39626  0.20864  0.67421  1.0000
  O   O72       1.0  0.31238  0.10374  0.60755  1.0000
  N   N37       1.0  0.14190  0.25035  0.72576  1.0000
  N   N38       1.0  0.24965  0.39155  0.79243  1.0000
  N   N39       1.0  0.10845  0.35810  0.65909  1.0000
  N   N40       1.0  0.25035  0.14190  0.67424  1.0000
  N   N41       1.0  0.39155  0.24965  0.60757  1.0000
  N   N42       1.0  0.35810  0.10845  0.74091  1.0000
  H   H289      1.0  0.12800  0.23543  0.70635  1.0000
  H   H290      1.0  0.26457  0.39257  0.77302  1.0000
  H   H291      1.0  0.10743  0.37200  0.63968  1.0000
  H   H292      1.0  0.23543  0.12800  0.69365  1.0000
  H   H293      1.0  0.39257  0.26457  0.62698  1.0000
  H   H294      1.0  0.37200  0.10743  0.76032  1.0000
  H   H295      1.0  0.16059  0.24650  0.72875  1.0000
  H   H296      1.0  0.25350  0.41409  0.79541  1.0000
  H   H297      1.0  0.08591  0.33941  0.66208  1.0000
  H   H298      1.0  0.24650  0.16059  0.67125  1.0000
  H   H299      1.0  0.41409  0.25350  0.60459  1.0000
  H   H300      1.0  0.33941  0.08591  0.73792  1.0000
  C   C208      1.0  0.22040  0.30770  0.75760  1.0000
  C   C209      1.0  0.19230  0.41270  0.62427  1.0000
  C   C210      1.0  0.08730  0.27960  0.69093  1.0000
  C   C211      1.0  0.30770  0.22040  0.64240  1.0000
  C   C212      1.0  0.41270  0.19230  0.77573  1.0000
  C   C213      1.0  0.27960  0.08730  0.70907  1.0000
  C   C214      1.0  0.21480  0.29715  0.79770  1.0000
  C   C215      1.0  0.20285  0.41765  0.66437  1.0000
  C   C216      1.0  0.08235  0.28520  0.73103  1.0000
  C   C217      1.0  0.29715  0.21480  0.60230  1.0000
  C   C218      1.0  0.41765  0.20285  0.73563  1.0000
  C   C219      1.0  0.28520  0.08235  0.66897  1.0000
  C   C220      1.0  0.23180  0.27985  0.61314  1.0000
  C   C221      1.0  0.22015  0.45195  0.67981  1.0000
  C   C222      1.0  0.04805  0.26820  0.74647  1.0000
  C   C223      1.0  0.27985  0.23180  0.78686  1.0000
  C   C224      1.0  0.45195  0.22015  0.72019  1.0000
  C   C225      1.0  0.26820  0.04805  0.65353  1.0000
  H   H301      1.0  0.22806  0.27308  0.64002  1.0000
  H   H302      1.0  0.22692  0.45498  0.70669  1.0000
  H   H303      1.0  0.04502  0.27194  0.77336  1.0000
  H   H304      1.0  0.27308  0.22806  0.75998  1.0000
  H   H305      1.0  0.45498  0.22692  0.69331  1.0000
  H   H306      1.0  0.27194  0.04502  0.62664  1.0000
  C   C226      1.0  0.25405  0.27195  0.79124  1.0000
  C   C227      1.0  0.22805  0.48210  0.65791  1.0000
  C   C228      1.0  0.01790  0.24595  0.72457  1.0000
  C   C229      1.0  0.27195  0.25405  0.60876  1.0000
  C   C230      1.0  0.48210  0.22805  0.74209  1.0000
  C   C231      1.0  0.24595  0.01790  0.67543  1.0000
  C   C232      1.0  0.25860  0.28175  0.75170  1.0000
  C   C233      1.0  0.21825  0.47685  0.61837  1.0000
  C   C234      1.0  0.02315  0.24140  0.68503  1.0000
  C   C235      1.0  0.28175  0.25860  0.64830  1.0000
  C   C236      1.0  0.47685  0.21825  0.78163  1.0000
  C   C237      1.0  0.24140  0.02315  0.71497  1.0000
  H   H307      1.0  0.27322  0.27633  0.73565  1.0000
  H   H308      1.0  0.22367  0.49688  0.60232  1.0000
  H   H309      1.0  0.00312  0.22678  0.66899  1.0000
  H   H310      1.0  0.27633  0.27322  0.66435  1.0000
  H   H311      1.0  0.49688  0.22366  0.79768  1.0000
  H   H312      1.0  0.22678  0.00312  0.73101  1.0000
  C   C238      1.0  0.24215  0.29920  0.73538  1.0000
  C   C239      1.0  0.20080  0.44295  0.60205  1.0000
  C   C240      1.0  0.05705  0.25785  0.66871  1.0000
  C   C241      1.0  0.29920  0.24215  0.66462  1.0000
  C   C242      1.0  0.44295  0.20080  0.79795  1.0000
  C   C243      1.0  0.25785  0.05705  0.73129  1.0000
  H   H313      1.0  0.24582  0.30549  0.70837  1.0000
  H   H314      1.0  0.19451  0.44033  0.77504  1.0000
  H   H315      1.0  0.05967  0.25418  0.64170  1.0000
  H   H316      1.0  0.30549  0.24582  0.69163  1.0000
  H   H317      1.0  0.44033  0.19451  0.62496  1.0000
  H   H318      1.0  0.25418  0.05967  0.75830  1.0000
  C   C244      1.0  0.19100  0.30295  0.62468  1.0000
  C   C245      1.0  0.19705  0.38805  0.69135  1.0000
  C   C246      1.0  0.11195  0.30900  0.75801  1.0000
  C   C247      1.0  0.30295  0.19100  0.77532  1.0000
  C   C248      1.0  0.38805  0.19705  0.70865  1.0000
  C   C249      1.0  0.30900  0.11195  0.64199  1.0000
  N   N43       1.0  0.16995  0.20745  0.75580  1.0000
  N   N44       1.0  0.29255  0.46250  0.62247  1.0000
  N   N45       1.0  0.03750  0.33005  0.68913  1.0000
  N   N46       1.0  0.20745  0.16995  0.64420  1.0000
  N   N47       1.0  0.46250  0.29255  0.77753  1.0000
  N   N48       1.0  0.33005  0.03750  0.71087  1.0000
  H   H319      1.0  0.17166  0.22635  0.74221  1.0000
  H   H320      1.0  0.27365  0.44531  0.60887  1.0000
  H   H321      1.0  0.05469  0.32834  0.67554  1.0000
  H   H322      1.0  0.22635  0.17166  0.65779  1.0000
  H   H323      1.0  0.44531  0.27365  0.79113  1.0000
  H   H324      1.0  0.32834  0.05469  0.72446  1.0000
  H   H325      1.0  0.19199  0.21426  0.76564  1.0000
  H   H326      1.0  0.28574  0.47773  0.63230  1.0000
  H   H327      1.0  0.02227  0.30801  0.69897  1.0000
  H   H328      1.0  0.21426  0.19199  0.63437  1.0000
  H   H329      1.0  0.47773  0.28574  0.76770  1.0000
  H   H330      1.0  0.30801  0.02227  0.70103  1.0000
  C   C250      1.0  0.12105  0.23795  0.76182  1.0000
  C   C251      1.0  0.26205  0.38310  0.62849  1.0000
  C   C252      1.0  0.11690  0.37895  0.69515  1.0000
  C   C253      1.0  0.23795  0.12105  0.63818  1.0000
  C   C254      1.0  0.38310  0.26205  0.77151  1.0000
  C   C255      1.0  0.37895  0.11690  0.70485  1.0000
  H   H331      1.0  0.09871  0.23858  0.75789  1.0000
  H   H332      1.0  0.26142  0.36012  0.62456  1.0000
  H   H333      1.0  0.13988  0.40129  0.69123  1.0000
  H   H334      1.0  0.23858  0.09871  0.64211  1.0000
  H   H335      1.0  0.36012  0.26142  0.77544  1.0000
  H   H336      1.0  0.40129  0.13988  0.70877  1.0000
  H   H337      1.0  0.13460  0.25517  0.78295  1.0000
  H   H338      1.0  0.24483  0.37944  0.64961  1.0000
  H   H339      1.0  0.12056  0.36540  0.71628  1.0000
  H   H340      1.0  0.25517  0.13460  0.61705  1.0000
  H   H341      1.0  0.37944  0.24483  0.75039  1.0000
  H   H342      1.0  0.36540  0.12056  0.68372  1.0000
  C   C256      1.0  0.11120  0.20095  0.77604  1.0000
  C   C257      1.0  0.29905  0.41025  0.64271  1.0000
  C   C258      1.0  0.08975  0.38880  0.70937  1.0000
  C   C259      1.0  0.20095  0.11120  0.62396  1.0000
  C   C260      1.0  0.41025  0.29905  0.75729  1.0000
  C   C261      1.0  0.38880  0.08975  0.69063  1.0000
  H   H343      1.0  0.09974  0.18356  0.75445  1.0000
  H   H344      1.0  0.31644  0.41619  0.62112  1.0000
  H   H345      1.0  0.08381  0.40026  0.68778  1.0000
  H   H346      1.0  0.18356  0.09974  0.64555  1.0000
  H   H347      1.0  0.41619  0.31644  0.77888  1.0000
  H   H348      1.0  0.40025  0.08381  0.71222  1.0000
  H   H349      1.0  0.09394  0.19392  0.79793  1.0000
  H   H350      1.0  0.30608  0.40002  0.66460  1.0000
  H   H351      1.0  0.09998  0.40606  0.73127  1.0000
  H   H352      1.0  0.19392  0.09394  0.60207  1.0000
  H   H353      1.0  0.40002  0.30608  0.73540  1.0000
  H   H354      1.0  0.40606  0.09998  0.66873  1.0000
  C   C262      1.0  0.14495  0.20020  0.79020  1.0000
  C   C263      1.0  0.29980  0.44475  0.65687  1.0000
  C   C264      1.0  0.05525  0.35505  0.72353  1.0000
  C   C265      1.0  0.20020  0.14495  0.60980  1.0000
  C   C266      1.0  0.44475  0.29980  0.74313  1.0000
  C   C267      1.0  0.35505  0.05525  0.67647  1.0000
  H   H355      1.0  0.15726  0.21856  0.61072  1.0000
  H   H356      1.0  0.28144  0.43871  0.67738  1.0000
  H   H357      1.0  0.06129  0.34274  0.74405  1.0000
  H   H358      1.0  0.21856  0.15726  0.78928  1.0000
  H   H359      1.0  0.43871  0.28144  0.72262  1.0000
  H   H360      1.0  0.34274  0.06129  0.65595  1.0000
  H   H361      1.0  0.13794  0.17661  0.60169  1.0000
  H   H362      1.0  0.32339  0.46133  0.66836  1.0000
  H   H363      1.0  0.03867  0.36206  0.73502  1.0000
  H   H364      1.0  0.17661  0.13794  0.79831  1.0000
  H   H365      1.0  0.46133  0.32339  0.73164  1.0000
  H   H366      1.0  0.36206  0.03867  0.66498  1.0000
  C   C268      1.0  0.16125  0.17975  0.72900  1.0000
  C   C269      1.0  0.32025  0.48150  0.79567  1.0000
  C   C270      1.0  0.01850  0.33875  0.66233  1.0000
  C   C271      1.0  0.17975  0.16125  0.67100  1.0000
  C   C272      1.0  0.48150  0.32025  0.60433  1.0000
  C   C273      1.0  0.33875  0.01850  0.73767  1.0000
  H   H367      1.0  0.13879  0.17390  0.71541  1.0000
  H   H368      1.0  0.32610  0.46490  0.78208  1.0000
  H   H369      1.0  0.03510  0.36121  0.64874  1.0000
  H   H370      1.0  0.17390  0.13879  0.68459  1.0000
  H   H371      1.0  0.46490  0.32610  0.61792  1.0000
  H   H372      1.0  0.36121  0.03510  0.75126  1.0000
  H   H373      1.0  0.15740  0.15820  0.74341  1.0000
  H   H374      1.0  0.34180  0.49920  0.61007  1.0000
  H   H375      1.0  0.00080  0.34260  0.67674  1.0000
  H   H376      1.0  0.15820  0.15740  0.65659  1.0000
  H   H377      1.0  0.49920  0.34180  0.78993  1.0000
  H   H378      1.0  0.34260  0.00080  0.72326  1.0000
  C   C274      1.0  0.18975  0.18975  0.70000  1.0000
  C   C275      1.0  0.31025  0.00000  0.76667  1.0000
  C   C276      1.0  0.00000  0.31025  0.63333  1.0000
  H   H379      1.0  0.19441  0.21192  0.68651  1.0000
  H   H380      1.0  0.28808  0.48249  0.75317  1.0000
  H   H381      1.0  0.01751  0.30559  0.61984  1.0000
  H   H382      1.0  0.21192  0.19441  0.71349  1.0000
  H   H383      1.0  0.48249  0.28808  0.64683  1.0000
  H   H384      1.0  0.30559  0.01751  0.78016  1.0000
  Zn  Zn25      1.0  0.16347  0.30299  0.90346  1.0000
  Zn  Zn26      1.0  0.19701  0.36048  0.97013  1.0000
  Zn  Zn27      1.0  0.13952  0.33653  0.83680  1.0000
  Zn  Zn28      1.0  0.30299  0.16347  0.89654  1.0000
  Zn  Zn29      1.0  0.36048  0.19701  0.82987  1.0000
  Zn  Zn30      1.0  0.33653  0.13952  0.96320  1.0000
  O   O73       1.0  0.20666  0.32560  0.94008  1.0000
  O   O74       1.0  0.17440  0.38106  0.80675  1.0000
  O   O75       1.0  0.11894  0.29334  0.87341  1.0000
  O   O76       1.0  0.32560  0.20666  0.85992  1.0000
  O   O77       1.0  0.38106  0.17440  0.99325  1.0000
  O   O78       1.0  0.29334  0.11894  0.92659  1.0000
  O   O79       1.0  0.17541  0.31877  0.81196  1.0000
  O   O80       1.0  0.18122  0.35663  0.87863  1.0000
  O   O81       1.0  0.14336  0.32459  0.94529  1.0000
  O   O82       1.0  0.31877  0.17541  0.98804  1.0000
  O   O83       1.0  0.35664  0.18123  0.92137  1.0000
  O   O84       1.0  0.32459  0.14336  0.85471  1.0000
  O   O85       1.0  0.18762  0.29136  0.85912  1.0000
  O   O86       1.0  0.20864  0.39626  0.92579  1.0000
  O   O87       1.0  0.10374  0.31238  0.99245  1.0000
  O   O88       1.0  0.29136  0.18762  0.94088  1.0000
  O   O89       1.0  0.39626  0.20864  0.87421  1.0000
  O   O90       1.0  0.31238  0.10374  0.80755  1.0000
  N   N49       1.0  0.14190  0.25035  0.92576  1.0000
  N   N50       1.0  0.24965  0.39155  0.99243  1.0000
  N   N51       1.0  0.10845  0.35810  0.85909  1.0000
  N   N52       1.0  0.25035  0.14190  0.87424  1.0000
  N   N53       1.0  0.39155  0.24965  0.80757  1.0000
  N   N54       1.0  0.35810  0.10845  0.94091  1.0000
  H   H385      1.0  0.12800  0.23543  0.90635  1.0000
  H   H386      1.0  0.26457  0.39257  0.97302  1.0000
  H   H387      1.0  0.10743  0.37200  0.83968  1.0000
  H   H388      1.0  0.23543  0.12800  0.89365  1.0000
  H   H389      1.0  0.39257  0.26457  0.82698  1.0000
  H   H390      1.0  0.37200  0.10743  0.96032  1.0000
  H   H391      1.0  0.16059  0.24650  0.92875  1.0000
  H   H392      1.0  0.25350  0.41409  0.99541  1.0000
  H   H393      1.0  0.08591  0.33941  0.86208  1.0000
  H   H394      1.0  0.24650  0.16059  0.87125  1.0000
  H   H395      1.0  0.41409  0.25350  0.80459  1.0000
  H   H396      1.0  0.33941  0.08591  0.93792  1.0000
  C   C277      1.0  0.22040  0.30770  0.95760  1.0000
  C   C278      1.0  0.19230  0.41270  0.82427  1.0000
  C   C279      1.0  0.08730  0.27960  0.89093  1.0000
  C   C280      1.0  0.30770  0.22040  0.84240  1.0000
  C   C281      1.0  0.41270  0.19230  0.97573  1.0000
  C   C282      1.0  0.27960  0.08730  0.90907  1.0000
  C   C283      1.0  0.21480  0.29715  0.99770  1.0000
  C   C284      1.0  0.20285  0.41765  0.86437  1.0000
  C   C285      1.0  0.08235  0.28520  0.93103  1.0000
  C   C286      1.0  0.29715  0.21480  0.80230  1.0000
  C   C287      1.0  0.41765  0.20285  0.93563  1.0000
  C   C288      1.0  0.28520  0.08235  0.86897  1.0000
  C   C289      1.0  0.23180  0.27985  0.81314  1.0000
  C   C290      1.0  0.22015  0.45195  0.87981  1.0000
  C   C291      1.0  0.04805  0.26820  0.94647  1.0000
  C   C292      1.0  0.27985  0.23180  0.98686  1.0000
  C   C293      1.0  0.45195  0.22015  0.92019  1.0000
  C   C294      1.0  0.26820  0.04805  0.85353  1.0000
  H   H397      1.0  0.22806  0.27308  0.84002  1.0000
  H   H398      1.0  0.22692  0.45498  0.90669  1.0000
  H   H399      1.0  0.04502  0.27194  0.97336  1.0000
  H   H400      1.0  0.27308  0.22806  0.95998  1.0000
  H   H401      1.0  0.45498  0.22692  0.89331  1.0000
  H   H402      1.0  0.27194  0.04502  0.82664  1.0000
  C   C295      1.0  0.25405  0.27195  0.99124  1.0000
  C   C296      1.0  0.22805  0.48210  0.85791  1.0000
  C   C297      1.0  0.01790  0.24595  0.92457  1.0000
  C   C298      1.0  0.27195  0.25405  0.80876  1.0000
  C   C299      1.0  0.48210  0.22805  0.94209  1.0000
  C   C300      1.0  0.24595  0.01790  0.87543  1.0000
  C   C301      1.0  0.25860  0.28175  0.95170  1.0000
  C   C302      1.0  0.21825  0.47685  0.81837  1.0000
  C   C303      1.0  0.02315  0.24140  0.88503  1.0000
  C   C304      1.0  0.28175  0.25860  0.84830  1.0000
  C   C305      1.0  0.47685  0.21825  0.98163  1.0000
  C   C306      1.0  0.24140  0.02315  0.91497  1.0000
  H   H403      1.0  0.27322  0.27633  0.93565  1.0000
  H   H404      1.0  0.22367  0.49688  0.80232  1.0000
  H   H405      1.0  0.00312  0.22678  0.86899  1.0000
  H   H406      1.0  0.27633  0.27322  0.86435  1.0000
  H   H407      1.0  0.49688  0.22366  0.99768  1.0000
  H   H408      1.0  0.22678  0.00312  0.93101  1.0000
  C   C307      1.0  0.24215  0.29920  0.93538  1.0000
  C   C308      1.0  0.20080  0.44295  0.80205  1.0000
  C   C309      1.0  0.05705  0.25785  0.86871  1.0000
  C   C310      1.0  0.29920  0.24215  0.86462  1.0000
  C   C311      1.0  0.44295  0.20080  0.99795  1.0000
  C   C312      1.0  0.25785  0.05705  0.93129  1.0000
  H   H409      1.0  0.24582  0.30549  0.90837  1.0000
  H   H410      1.0  0.19451  0.44033  0.97504  1.0000
  H   H411      1.0  0.05967  0.25418  0.84170  1.0000
  H   H412      1.0  0.30549  0.24582  0.89163  1.0000
  H   H413      1.0  0.44033  0.19451  0.82496  1.0000
  H   H414      1.0  0.25418  0.05967  0.95830  1.0000
  C   C313      1.0  0.19100  0.30295  0.82468  1.0000
  C   C314      1.0  0.19705  0.38805  0.89135  1.0000
  C   C315      1.0  0.11195  0.30900  0.95801  1.0000
  C   C316      1.0  0.30295  0.19100  0.97532  1.0000
  C   C317      1.0  0.38805  0.19705  0.90865  1.0000
  C   C318      1.0  0.30900  0.11195  0.84199  1.0000
  N   N55       1.0  0.16995  0.20745  0.95580  1.0000
  N   N56       1.0  0.29255  0.46250  0.82247  1.0000
  N   N57       1.0  0.03750  0.33005  0.88913  1.0000
  N   N58       1.0  0.20745  0.16995  0.84420  1.0000
  N   N59       1.0  0.46250  0.29255  0.97753  1.0000
  N   N60       1.0  0.33005  0.03750  0.91087  1.0000
  H   H415      1.0  0.17166  0.22635  0.94221  1.0000
  H   H416      1.0  0.27365  0.44531  0.80887  1.0000
  H   H417      1.0  0.05469  0.32834  0.87554  1.0000
  H   H418      1.0  0.22635  0.17166  0.85779  1.0000
  H   H419      1.0  0.44531  0.27365  0.99113  1.0000
  H   H420      1.0  0.32834  0.05469  0.92446  1.0000
  H   H421      1.0  0.19199  0.21426  0.96564  1.0000
  H   H422      1.0  0.28574  0.47773  0.83230  1.0000
  H   H423      1.0  0.02227  0.30801  0.89897  1.0000
  H   H424      1.0  0.21426  0.19199  0.83437  1.0000
  H   H425      1.0  0.47773  0.28574  0.96770  1.0000
  H   H426      1.0  0.30801  0.02227  0.90103  1.0000
  C   C319      1.0  0.12105  0.23795  0.96182  1.0000
  C   C320      1.0  0.26205  0.38310  0.82849  1.0000
  C   C321      1.0  0.11690  0.37895  0.89515  1.0000
  C   C322      1.0  0.23795  0.12105  0.83818  1.0000
  C   C323      1.0  0.38310  0.26205  0.97151  1.0000
  C   C324      1.0  0.37895  0.11690  0.90485  1.0000
  H   H427      1.0  0.09871  0.23858  0.95789  1.0000
  H   H428      1.0  0.26142  0.36012  0.82456  1.0000
  H   H429      1.0  0.13988  0.40129  0.89123  1.0000
  H   H430      1.0  0.23858  0.09871  0.84211  1.0000
  H   H431      1.0  0.36012  0.26142  0.97544  1.0000
  H   H432      1.0  0.40129  0.13988  0.90877  1.0000
  H   H433      1.0  0.13460  0.25517  0.98295  1.0000
  H   H434      1.0  0.24483  0.37944  0.84961  1.0000
  H   H435      1.0  0.12056  0.36540  0.91628  1.0000
  H   H436      1.0  0.25517  0.13460  0.81705  1.0000
  H   H437      1.0  0.37944  0.24483  0.95039  1.0000
  H   H438      1.0  0.36540  0.12056  0.88372  1.0000
  C   C325      1.0  0.11120  0.20095  0.97604  1.0000
  C   C326      1.0  0.29905  0.41025  0.84271  1.0000
  C   C327      1.0  0.08975  0.38880  0.90937  1.0000
  C   C328      1.0  0.20095  0.11120  0.82396  1.0000
  C   C329      1.0  0.41025  0.29905  0.95729  1.0000
  C   C330      1.0  0.38880  0.08975  0.89063  1.0000
  H   H439      1.0  0.09974  0.18356  0.95445  1.0000
  H   H440      1.0  0.31644  0.41619  0.82112  1.0000
  H   H441      1.0  0.08381  0.40026  0.88778  1.0000
  H   H442      1.0  0.18356  0.09974  0.84555  1.0000
  H   H443      1.0  0.41619  0.31644  0.97888  1.0000
  H   H444      1.0  0.40025  0.08381  0.91222  1.0000
  H   H445      1.0  0.09394  0.19392  0.99793  1.0000
  H   H446      1.0  0.30608  0.40002  0.86460  1.0000
  H   H447      1.0  0.09998  0.40606  0.93127  1.0000
  H   H448      1.0  0.19392  0.09394  0.80207  1.0000
  H   H449      1.0  0.40002  0.30608  0.93540  1.0000
  H   H450      1.0  0.40606  0.09998  0.86873  1.0000
  C   C331      1.0  0.14495  0.20020  0.99020  1.0000
  C   C332      1.0  0.29980  0.44475  0.85687  1.0000
  C   C333      1.0  0.05525  0.35505  0.92353  1.0000
  C   C334      1.0  0.20020  0.14495  0.80980  1.0000
  C   C335      1.0  0.44475  0.29980  0.94313  1.0000
  C   C336      1.0  0.35505  0.05525  0.87647  1.0000
  H   H451      1.0  0.15726  0.21856  0.81072  1.0000
  H   H452      1.0  0.28144  0.43871  0.87738  1.0000
  H   H453      1.0  0.06129  0.34274  0.94405  1.0000
  H   H454      1.0  0.21856  0.15726  0.98928  1.0000
  H   H455      1.0  0.43871  0.28144  0.92262  1.0000
  H   H456      1.0  0.34274  0.06129  0.85595  1.0000
  H   H457      1.0  0.13794  0.17661  0.80169  1.0000
  H   H458      1.0  0.32339  0.46133  0.86836  1.0000
  H   H459      1.0  0.03867  0.36206  0.93502  1.0000
  H   H460      1.0  0.17661  0.13794  0.99831  1.0000
  H   H461      1.0  0.46133  0.32339  0.93164  1.0000
  H   H462      1.0  0.36206  0.03867  0.86498  1.0000
  C   C337      1.0  0.16125  0.17975  0.92900  1.0000
  C   C338      1.0  0.32025  0.48150  0.99567  1.0000
  C   C339      1.0  0.01850  0.33875  0.86233  1.0000
  C   C340      1.0  0.17975  0.16125  0.87100  1.0000
  C   C341      1.0  0.48150  0.32025  0.80433  1.0000
  C   C342      1.0  0.33875  0.01850  0.93767  1.0000
  H   H463      1.0  0.13879  0.17390  0.91541  1.0000
  H   H464      1.0  0.32610  0.46490  0.98208  1.0000
  H   H465      1.0  0.03510  0.36121  0.84874  1.0000
  H   H466      1.0  0.17390  0.13879  0.88459  1.0000
  H   H467      1.0  0.46490  0.32610  0.81792  1.0000
  H   H468      1.0  0.36121  0.03510  0.95126  1.0000
  H   H469      1.0  0.15740  0.15820  0.94341  1.0000
  H   H470      1.0  0.34180  0.49920  0.81007  1.0000
  H   H471      1.0  0.00080  0.34260  0.87674  1.0000
  H   H472      1.0  0.15820  0.15740  0.85659  1.0000
  H   H473      1.0  0.49920  0.34180  0.98993  1.0000
  H   H474      1.0  0.34260  0.00080  0.92326  1.0000
  C   C343      1.0  0.18975  0.18975  0.90000  1.0000
  C   C344      1.0  0.31025  0.00000  0.96667  1.0000
  C   C345      1.0  0.00000  0.31025  0.83333  1.0000
  H   H475      1.0  0.19441  0.21192  0.88651  1.0000
  H   H476      1.0  0.28808  0.48249  0.95317  1.0000
  H   H477      1.0  0.01751  0.30559  0.81984  1.0000
  H   H478      1.0  0.21192  0.19441  0.91349  1.0000
  H   H479      1.0  0.48249  0.28808  0.84683  1.0000
  H   H480      1.0  0.30559  0.01751  0.98016  1.0000
  Zn  Zn31      1.0  0.16348  0.80299  0.10346  1.0000
  Zn  Zn32      1.0  0.19701  0.86048  0.17013  1.0000
  Zn  Zn33      1.0  0.13952  0.83653  0.03680  1.0000
  Zn  Zn34      1.0  0.30299  0.66347  0.09654  1.0000
  Zn  Zn35      1.0  0.36048  0.69701  0.02987  1.0000
  Zn  Zn36      1.0  0.33653  0.63951  0.16320  1.0000
  O   O91       1.0  0.20666  0.82560  0.14008  1.0000
  O   O92       1.0  0.17441  0.88106  0.00675  1.0000
  O   O93       1.0  0.11894  0.79334  0.07341  1.0000
  O   O94       1.0  0.32560  0.70666  0.05992  1.0000
  O   O95       1.0  0.38106  0.67441  0.19325  1.0000
  O   O96       1.0  0.29334  0.61894  0.12659  1.0000
  O   O97       1.0  0.17541  0.81877  0.01196  1.0000
  O   O98       1.0  0.18122  0.85664  0.07863  1.0000
  O   O99       1.0  0.14336  0.82459  0.14529  1.0000
  O   O100      1.0  0.31877  0.67541  0.18804  1.0000
  O   O101      1.0  0.35663  0.68122  0.12137  1.0000
  O   O102      1.0  0.32459  0.64336  0.05471  1.0000
  O   O103      1.0  0.18762  0.79136  0.05912  1.0000
  O   O104      1.0  0.20863  0.89626  0.12579  1.0000
  O   O105      1.0  0.10374  0.81238  0.19245  1.0000
  O   O106      1.0  0.29136  0.68762  0.14088  1.0000
  O   O107      1.0  0.39625  0.70863  0.07421  1.0000
  O   O108      1.0  0.31238  0.60374  0.00755  1.0000
  N   N61       1.0  0.14190  0.75035  0.12576  1.0000
  N   N62       1.0  0.24965  0.89155  0.19243  1.0000
  N   N63       1.0  0.10845  0.85810  0.05909  1.0000
  N   N64       1.0  0.25035  0.64190  0.07424  1.0000
  N   N65       1.0  0.39155  0.74965  0.00757  1.0000
  N   N66       1.0  0.35810  0.60845  0.14091  1.0000
  H   H481      1.0  0.12800  0.73543  0.10635  1.0000
  H   H482      1.0  0.26457  0.89257  0.17302  1.0000
  H   H483      1.0  0.10743  0.87200  0.03968  1.0000
  H   H484      1.0  0.23543  0.62800  0.09365  1.0000
  H   H485      1.0  0.39257  0.76457  0.02698  1.0000
  H   H486      1.0  0.37200  0.60743  0.16032  1.0000
  H   H487      1.0  0.16059  0.74650  0.12875  1.0000
  H   H488      1.0  0.25350  0.91409  0.19541  1.0000
  H   H489      1.0  0.08591  0.83941  0.06208  1.0000
  H   H490      1.0  0.24650  0.66059  0.07125  1.0000
  H   H491      1.0  0.41409  0.75350  0.00459  1.0000
  H   H492      1.0  0.33941  0.58591  0.13792  1.0000
  C   C346      1.0  0.22040  0.80770  0.15760  1.0000
  C   C347      1.0  0.19230  0.91270  0.02427  1.0000
  C   C348      1.0  0.08730  0.77960  0.09093  1.0000
  C   C349      1.0  0.30770  0.72040  0.04240  1.0000
  C   C350      1.0  0.41270  0.69230  0.17573  1.0000
  C   C351      1.0  0.27960  0.58730  0.10907  1.0000
  C   C352      1.0  0.21480  0.79715  0.19770  1.0000
  C   C353      1.0  0.20285  0.91765  0.06437  1.0000
  C   C354      1.0  0.08235  0.78520  0.13103  1.0000
  C   C355      1.0  0.29715  0.71480  0.00230  1.0000
  C   C356      1.0  0.41765  0.70285  0.13563  1.0000
  C   C357      1.0  0.28520  0.58235  0.06897  1.0000
  C   C358      1.0  0.23180  0.77985  0.01314  1.0000
  C   C359      1.0  0.22015  0.95195  0.07981  1.0000
  C   C360      1.0  0.04805  0.76820  0.14647  1.0000
  C   C361      1.0  0.27985  0.73180  0.18686  1.0000
  C   C362      1.0  0.45195  0.72015  0.12019  1.0000
  C   C363      1.0  0.26820  0.54805  0.05353  1.0000
  H   H493      1.0  0.22806  0.77308  0.04002  1.0000
  H   H494      1.0  0.22692  0.95498  0.10669  1.0000
  H   H495      1.0  0.04502  0.77194  0.17336  1.0000
  H   H496      1.0  0.27308  0.72806  0.15998  1.0000
  H   H497      1.0  0.45498  0.72692  0.09331  1.0000
  H   H498      1.0  0.27194  0.54502  0.02664  1.0000
  C   C364      1.0  0.25405  0.77195  0.19124  1.0000
  C   C365      1.0  0.22805  0.98210  0.05791  1.0000
  C   C366      1.0  0.01790  0.74595  0.12457  1.0000
  C   C367      1.0  0.27195  0.75405  0.00876  1.0000
  C   C368      1.0  0.48210  0.72805  0.14209  1.0000
  C   C369      1.0  0.24595  0.51790  0.07543  1.0000
  C   C370      1.0  0.25860  0.78175  0.15170  1.0000
  C   C371      1.0  0.21825  0.97685  0.01837  1.0000
  C   C372      1.0  0.02315  0.74140  0.08503  1.0000
  C   C373      1.0  0.28175  0.75860  0.04830  1.0000
  C   C374      1.0  0.47685  0.71825  0.18163  1.0000
  C   C375      1.0  0.24140  0.52315  0.11497  1.0000
  H   H499      1.0  0.27322  0.77633  0.13565  1.0000
  H   H500      1.0  0.22367  0.99688  0.00232  1.0000
  H   H501      1.0  0.00312  0.72678  0.06899  1.0000
  H   H502      1.0  0.27633  0.77322  0.06435  1.0000
  H   H503      1.0  0.49688  0.72366  0.19768  1.0000
  H   H504      1.0  0.22678  0.50312  0.13101  1.0000
  C   C376      1.0  0.24215  0.79920  0.13538  1.0000
  C   C377      1.0  0.20080  0.94295  0.00205  1.0000
  C   C378      1.0  0.05705  0.75785  0.06871  1.0000
  C   C379      1.0  0.29920  0.74215  0.06462  1.0000
  C   C380      1.0  0.44295  0.70080  0.19795  1.0000
  C   C381      1.0  0.25785  0.55705  0.13129  1.0000
  H   H505      1.0  0.24582  0.80549  0.10837  1.0000
  H   H506      1.0  0.19451  0.94033  0.17504  1.0000
  H   H507      1.0  0.05967  0.75418  0.04170  1.0000
  H   H508      1.0  0.30549  0.74582  0.09163  1.0000
  H   H509      1.0  0.44033  0.69451  0.02496  1.0000
  H   H510      1.0  0.25418  0.55967  0.15830  1.0000
  C   C382      1.0  0.19100  0.80295  0.02468  1.0000
  C   C383      1.0  0.19705  0.88805  0.09135  1.0000
  C   C384      1.0  0.11195  0.80900  0.15801  1.0000
  C   C385      1.0  0.30295  0.69100  0.17532  1.0000
  C   C386      1.0  0.38805  0.69705  0.10865  1.0000
  C   C387      1.0  0.30900  0.61195  0.04199  1.0000
  N   N67       1.0  0.16995  0.70745  0.15580  1.0000
  N   N68       1.0  0.29255  0.96250  0.02247  1.0000
  N   N69       1.0  0.03750  0.83005  0.08913  1.0000
  N   N70       1.0  0.20745  0.66995  0.04420  1.0000
  N   N71       1.0  0.46250  0.79255  0.17753  1.0000
  N   N72       1.0  0.33005  0.53750  0.11087  1.0000
  H   H511      1.0  0.17166  0.72635  0.14221  1.0000
  H   H512      1.0  0.27365  0.94531  0.00887  1.0000
  H   H513      1.0  0.05469  0.82834  0.07554  1.0000
  H   H514      1.0  0.22635  0.67166  0.05779  1.0000
  H   H515      1.0  0.44531  0.77365  0.19113  1.0000
  H   H516      1.0  0.32834  0.55469  0.12446  1.0000
  H   H517      1.0  0.19199  0.71426  0.16564  1.0000
  H   H518      1.0  0.28574  0.97773  0.03230  1.0000
  H   H519      1.0  0.02227  0.80801  0.09897  1.0000
  H   H520      1.0  0.21426  0.69199  0.03436  1.0000
  H   H521      1.0  0.47773  0.78574  0.16770  1.0000
  H   H522      1.0  0.30801  0.52227  0.10103  1.0000
  C   C388      1.0  0.12105  0.73795  0.16182  1.0000
  C   C389      1.0  0.26205  0.88310  0.02849  1.0000
  C   C390      1.0  0.11690  0.87895  0.09515  1.0000
  C   C391      1.0  0.23795  0.62105  0.03818  1.0000
  C   C392      1.0  0.38310  0.76205  0.17151  1.0000
  C   C393      1.0  0.37895  0.61690  0.10485  1.0000
  H   H523      1.0  0.09871  0.73858  0.15789  1.0000
  H   H524      1.0  0.26142  0.86012  0.02456  1.0000
  H   H525      1.0  0.13988  0.90129  0.09123  1.0000
  H   H526      1.0  0.23858  0.59871  0.04211  1.0000
  H   H527      1.0  0.36012  0.76142  0.17544  1.0000
  H   H528      1.0  0.40129  0.63988  0.10877  1.0000
  H   H529      1.0  0.13460  0.75517  0.18295  1.0000
  H   H530      1.0  0.24483  0.87943  0.04961  1.0000
  H   H531      1.0  0.12057  0.86540  0.11628  1.0000
  H   H532      1.0  0.25517  0.63460  0.01705  1.0000
  H   H533      1.0  0.37943  0.74483  0.15039  1.0000
  H   H534      1.0  0.36540  0.62056  0.08372  1.0000
  C   C394      1.0  0.11120  0.70095  0.17604  1.0000
  C   C395      1.0  0.29905  0.91025  0.04271  1.0000
  C   C396      1.0  0.08975  0.88880  0.10937  1.0000
  C   C397      1.0  0.20095  0.61120  0.02396  1.0000
  C   C398      1.0  0.41025  0.79905  0.15729  1.0000
  C   C399      1.0  0.38880  0.58975  0.09063  1.0000
  H   H535      1.0  0.09975  0.68356  0.15445  1.0000
  H   H536      1.0  0.31644  0.91619  0.02112  1.0000
  H   H537      1.0  0.08381  0.90026  0.08778  1.0000
  H   H538      1.0  0.18356  0.59974  0.04555  1.0000
  H   H539      1.0  0.41619  0.81644  0.17888  1.0000
  H   H540      1.0  0.40025  0.58381  0.11222  1.0000
  H   H541      1.0  0.09394  0.69392  0.19793  1.0000
  H   H542      1.0  0.30608  0.90002  0.06460  1.0000
  H   H543      1.0  0.09998  0.90606  0.13127  1.0000
  H   H544      1.0  0.19392  0.59394  0.00207  1.0000
  H   H545      1.0  0.40002  0.80608  0.13540  1.0000
  H   H546      1.0  0.40606  0.59998  0.06873  1.0000
  C   C400      1.0  0.14495  0.70020  0.19020  1.0000
  C   C401      1.0  0.29980  0.94475  0.05687  1.0000
  C   C402      1.0  0.05525  0.85505  0.12353  1.0000
  C   C403      1.0  0.20020  0.64495  0.00980  1.0000
  C   C404      1.0  0.44475  0.79980  0.14313  1.0000
  C   C405      1.0  0.35505  0.55525  0.07647  1.0000
  H   H547      1.0  0.15726  0.71856  0.01072  1.0000
  H   H548      1.0  0.28144  0.93871  0.07738  1.0000
  H   H549      1.0  0.06129  0.84274  0.14405  1.0000
  H   H550      1.0  0.21856  0.65726  0.18928  1.0000
  H   H551      1.0  0.43871  0.78144  0.12262  1.0000
  H   H552      1.0  0.34274  0.56129  0.05595  1.0000
  H   H553      1.0  0.13794  0.67661  0.00169  1.0000
  H   H554      1.0  0.32339  0.96133  0.06836  1.0000
  H   H555      1.0  0.03867  0.86206  0.13502  1.0000
  H   H556      1.0  0.17661  0.63794  0.19831  1.0000
  H   H557      1.0  0.46133  0.82339  0.13164  1.0000
  H   H558      1.0  0.36206  0.53867  0.06498  1.0000
  C   C406      1.0  0.16125  0.67975  0.12900  1.0000
  C   C407      1.0  0.32025  0.98150  0.19567  1.0000
  C   C408      1.0  0.01850  0.83875  0.06233  1.0000
  C   C409      1.0  0.17975  0.66125  0.07100  1.0000
  C   C410      1.0  0.48150  0.82025  0.00433  1.0000
  C   C411      1.0  0.33875  0.51850  0.13767  1.0000
  H   H559      1.0  0.13879  0.67390  0.11541  1.0000
  H   H560      1.0  0.32610  0.96490  0.18208  1.0000
  H   H561      1.0  0.03510  0.86121  0.04874  1.0000
  H   H562      1.0  0.17390  0.63879  0.08459  1.0000
  H   H563      1.0  0.46490  0.82610  0.01792  1.0000
  H   H564      1.0  0.36121  0.53510  0.15126  1.0000
  H   H565      1.0  0.15740  0.65820  0.14341  1.0000
  H   H566      1.0  0.34180  0.99920  0.01007  1.0000
  H   H567      1.0  0.00080  0.84260  0.07674  1.0000
  H   H568      1.0  0.15820  0.65740  0.05659  1.0000
  H   H569      1.0  0.49920  0.84180  0.18993  1.0000
  H   H570      1.0  0.34260  0.50080  0.12326  1.0000
  C   C412      1.0  0.18975  0.68975  0.10000  1.0000
  C   C413      1.0  0.31025  0.50000  0.16667  1.0000
  C   C414      1.0  1.00000  0.81025  0.03333  1.0000
  H   H571      1.0  0.19441  0.71192  0.08651  1.0000
  H   H572      1.0  0.28808  0.98249  0.15317  1.0000
  H   H573      1.0  0.01751  0.80559  0.01984  1.0000
  H   H574      1.0  0.21192  0.69441  0.11349  1.0000
  H   H575      1.0  0.48249  0.78808  0.04683  1.0000
  H   H576      1.0  0.30559  0.51751  0.18016  1.0000
  Zn  Zn37      1.0  0.16348  0.80299  0.30346  1.0000
  Zn  Zn38      1.0  0.19701  0.86048  0.37013  1.0000
  Zn  Zn39      1.0  0.13952  0.83653  0.23680  1.0000
  Zn  Zn40      1.0  0.30299  0.66347  0.29654  1.0000
  Zn  Zn41      1.0  0.36048  0.69701  0.22987  1.0000
  Zn  Zn42      1.0  0.33653  0.63951  0.36320  1.0000
  O   O109      1.0  0.20666  0.82560  0.34008  1.0000
  O   O110      1.0  0.17441  0.88106  0.20675  1.0000
  O   O111      1.0  0.11894  0.79334  0.27341  1.0000
  O   O112      1.0  0.32560  0.70666  0.25992  1.0000
  O   O113      1.0  0.38106  0.67441  0.39325  1.0000
  O   O114      1.0  0.29334  0.61894  0.32659  1.0000
  O   O115      1.0  0.17541  0.81877  0.21196  1.0000
  O   O116      1.0  0.18122  0.85664  0.27863  1.0000
  O   O117      1.0  0.14336  0.82459  0.34529  1.0000
  O   O118      1.0  0.31877  0.67541  0.38804  1.0000
  O   O119      1.0  0.35663  0.68122  0.32137  1.0000
  O   O120      1.0  0.32459  0.64336  0.25471  1.0000
  O   O121      1.0  0.18762  0.79136  0.25912  1.0000
  O   O122      1.0  0.20863  0.89626  0.32579  1.0000
  O   O123      1.0  0.10374  0.81238  0.39245  1.0000
  O   O124      1.0  0.29136  0.68762  0.34088  1.0000
  O   O125      1.0  0.39625  0.70863  0.27421  1.0000
  O   O126      1.0  0.31238  0.60374  0.20755  1.0000
  N   N73       1.0  0.14190  0.75035  0.32576  1.0000
  N   N74       1.0  0.24965  0.89155  0.39243  1.0000
  N   N75       1.0  0.10845  0.85810  0.25909  1.0000
  N   N76       1.0  0.25035  0.64190  0.27424  1.0000
  N   N77       1.0  0.39155  0.74965  0.20757  1.0000
  N   N78       1.0  0.35810  0.60845  0.34091  1.0000
  H   H577      1.0  0.12800  0.73543  0.30635  1.0000
  H   H578      1.0  0.26457  0.89257  0.37302  1.0000
  H   H579      1.0  0.10743  0.87200  0.23968  1.0000
  H   H580      1.0  0.23543  0.62800  0.29365  1.0000
  H   H581      1.0  0.39257  0.76457  0.22698  1.0000
  H   H582      1.0  0.37200  0.60743  0.36032  1.0000
  H   H583      1.0  0.16059  0.74650  0.32875  1.0000
  H   H584      1.0  0.25350  0.91409  0.39541  1.0000
  H   H585      1.0  0.08591  0.83941  0.26208  1.0000
  H   H586      1.0  0.24650  0.66059  0.27125  1.0000
  H   H587      1.0  0.41409  0.75350  0.20459  1.0000
  H   H588      1.0  0.33941  0.58591  0.33792  1.0000
  C   C415      1.0  0.22040  0.80770  0.35760  1.0000
  C   C416      1.0  0.19230  0.91270  0.22427  1.0000
  C   C417      1.0  0.08730  0.77960  0.29093  1.0000
  C   C418      1.0  0.30770  0.72040  0.24240  1.0000
  C   C419      1.0  0.41270  0.69230  0.37573  1.0000
  C   C420      1.0  0.27960  0.58730  0.30907  1.0000
  C   C421      1.0  0.21480  0.79715  0.39770  1.0000
  C   C422      1.0  0.20285  0.91765  0.26437  1.0000
  C   C423      1.0  0.08235  0.78520  0.33103  1.0000
  C   C424      1.0  0.29715  0.71480  0.20230  1.0000
  C   C425      1.0  0.41765  0.70285  0.33563  1.0000
  C   C426      1.0  0.28520  0.58235  0.26897  1.0000
  C   C427      1.0  0.23180  0.77985  0.21314  1.0000
  C   C428      1.0  0.22015  0.95195  0.27981  1.0000
  C   C429      1.0  0.04805  0.76820  0.34647  1.0000
  C   C430      1.0  0.27985  0.73180  0.38686  1.0000
  C   C431      1.0  0.45195  0.72015  0.32019  1.0000
  C   C432      1.0  0.26820  0.54805  0.25353  1.0000
  H   H589      1.0  0.22806  0.77308  0.24002  1.0000
  H   H590      1.0  0.22692  0.95498  0.30669  1.0000
  H   H591      1.0  0.04502  0.77194  0.37336  1.0000
  H   H592      1.0  0.27308  0.72806  0.35998  1.0000
  H   H593      1.0  0.45498  0.72692  0.29331  1.0000
  H   H594      1.0  0.27194  0.54502  0.22664  1.0000
  C   C433      1.0  0.25405  0.77195  0.39124  1.0000
  C   C434      1.0  0.22805  0.98210  0.25791  1.0000
  C   C435      1.0  0.01790  0.74595  0.32457  1.0000
  C   C436      1.0  0.27195  0.75405  0.20876  1.0000
  C   C437      1.0  0.48210  0.72805  0.34209  1.0000
  C   C438      1.0  0.24595  0.51790  0.27543  1.0000
  C   C439      1.0  0.25860  0.78175  0.35170  1.0000
  C   C440      1.0  0.21825  0.97685  0.21837  1.0000
  C   C441      1.0  0.02315  0.74140  0.28503  1.0000
  C   C442      1.0  0.28175  0.75860  0.24830  1.0000
  C   C443      1.0  0.47685  0.71825  0.38163  1.0000
  C   C444      1.0  0.24140  0.52315  0.31497  1.0000
  H   H595      1.0  0.27322  0.77633  0.33565  1.0000
  H   H596      1.0  0.22367  0.99688  0.20232  1.0000
  H   H597      1.0  0.00312  0.72678  0.26899  1.0000
  H   H598      1.0  0.27633  0.77322  0.26435  1.0000
  H   H599      1.0  0.49688  0.72366  0.39768  1.0000
  H   H600      1.0  0.22678  0.50312  0.33101  1.0000
  C   C445      1.0  0.24215  0.79920  0.33538  1.0000
  C   C446      1.0  0.20080  0.94295  0.20205  1.0000
  C   C447      1.0  0.05705  0.75785  0.26871  1.0000
  C   C448      1.0  0.29920  0.74215  0.26462  1.0000
  C   C449      1.0  0.44295  0.70080  0.39795  1.0000
  C   C450      1.0  0.25785  0.55705  0.33129  1.0000
  H   H601      1.0  0.24582  0.80549  0.30837  1.0000
  H   H602      1.0  0.19451  0.94033  0.37504  1.0000
  H   H603      1.0  0.05967  0.75418  0.24170  1.0000
  H   H604      1.0  0.30549  0.74582  0.29163  1.0000
  H   H605      1.0  0.44033  0.69451  0.22496  1.0000
  H   H606      1.0  0.25418  0.55967  0.35830  1.0000
  C   C451      1.0  0.19100  0.80295  0.22468  1.0000
  C   C452      1.0  0.19705  0.88805  0.29135  1.0000
  C   C453      1.0  0.11195  0.80900  0.35801  1.0000
  C   C454      1.0  0.30295  0.69100  0.37532  1.0000
  C   C455      1.0  0.38805  0.69705  0.30865  1.0000
  C   C456      1.0  0.30900  0.61195  0.24199  1.0000
  N   N79       1.0  0.16995  0.70745  0.35580  1.0000
  N   N80       1.0  0.29255  0.96250  0.22247  1.0000
  N   N81       1.0  0.03750  0.83005  0.28913  1.0000
  N   N82       1.0  0.20745  0.66995  0.24420  1.0000
  N   N83       1.0  0.46250  0.79255  0.37753  1.0000
  N   N84       1.0  0.33005  0.53750  0.31087  1.0000
  H   H607      1.0  0.17166  0.72635  0.34221  1.0000
  H   H608      1.0  0.27365  0.94531  0.20887  1.0000
  H   H609      1.0  0.05469  0.82834  0.27554  1.0000
  H   H610      1.0  0.22635  0.67166  0.25779  1.0000
  H   H611      1.0  0.44531  0.77365  0.39113  1.0000
  H   H612      1.0  0.32834  0.55469  0.32446  1.0000
  H   H613      1.0  0.19199  0.71426  0.36564  1.0000
  H   H614      1.0  0.28574  0.97773  0.23230  1.0000
  H   H615      1.0  0.02227  0.80801  0.29897  1.0000
  H   H616      1.0  0.21426  0.69199  0.23437  1.0000
  H   H617      1.0  0.47773  0.78574  0.36770  1.0000
  H   H618      1.0  0.30801  0.52227  0.30103  1.0000
  C   C457      1.0  0.12105  0.73795  0.36182  1.0000
  C   C458      1.0  0.26205  0.88310  0.22849  1.0000
  C   C459      1.0  0.11690  0.87895  0.29515  1.0000
  C   C460      1.0  0.23795  0.62105  0.23818  1.0000
  C   C461      1.0  0.38310  0.76205  0.37151  1.0000
  C   C462      1.0  0.37895  0.61690  0.30485  1.0000
  H   H619      1.0  0.09871  0.73858  0.35789  1.0000
  H   H620      1.0  0.26142  0.86012  0.22456  1.0000
  H   H621      1.0  0.13988  0.90129  0.29123  1.0000
  H   H622      1.0  0.23858  0.59871  0.24211  1.0000
  H   H623      1.0  0.36012  0.76142  0.37544  1.0000
  H   H624      1.0  0.40129  0.63988  0.30877  1.0000
  H   H625      1.0  0.13460  0.75517  0.38295  1.0000
  H   H626      1.0  0.24483  0.87943  0.24961  1.0000
  H   H627      1.0  0.12057  0.86540  0.31628  1.0000
  H   H628      1.0  0.25517  0.63460  0.21705  1.0000
  H   H629      1.0  0.37943  0.74483  0.35039  1.0000
  H   H630      1.0  0.36540  0.62056  0.28372  1.0000
  C   C463      1.0  0.11120  0.70095  0.37604  1.0000
  C   C464      1.0  0.29905  0.91025  0.24271  1.0000
  C   C465      1.0  0.08975  0.88880  0.30937  1.0000
  C   C466      1.0  0.20095  0.61120  0.22396  1.0000
  C   C467      1.0  0.41025  0.79905  0.35729  1.0000
  C   C468      1.0  0.38880  0.58975  0.29063  1.0000
  H   H631      1.0  0.09975  0.68356  0.35445  1.0000
  H   H632      1.0  0.31644  0.91619  0.22112  1.0000
  H   H633      1.0  0.08381  0.90026  0.28778  1.0000
  H   H634      1.0  0.18356  0.59974  0.24555  1.0000
  H   H635      1.0  0.41619  0.81644  0.37888  1.0000
  H   H636      1.0  0.40025  0.58381  0.31222  1.0000
  H   H637      1.0  0.09394  0.69392  0.39793  1.0000
  H   H638      1.0  0.30608  0.90002  0.26460  1.0000
  H   H639      1.0  0.09998  0.90606  0.33127  1.0000
  H   H640      1.0  0.19392  0.59394  0.20207  1.0000
  H   H641      1.0  0.40002  0.80608  0.33540  1.0000
  H   H642      1.0  0.40606  0.59998  0.26873  1.0000
  C   C469      1.0  0.14495  0.70020  0.39020  1.0000
  C   C470      1.0  0.29980  0.94475  0.25687  1.0000
  C   C471      1.0  0.05525  0.85505  0.32353  1.0000
  C   C472      1.0  0.20020  0.64495  0.20980  1.0000
  C   C473      1.0  0.44475  0.79980  0.34313  1.0000
  C   C474      1.0  0.35505  0.55525  0.27647  1.0000
  H   H643      1.0  0.15726  0.71856  0.21072  1.0000
  H   H644      1.0  0.28144  0.93871  0.27738  1.0000
  H   H645      1.0  0.06129  0.84274  0.34405  1.0000
  H   H646      1.0  0.21856  0.65726  0.38928  1.0000
  H   H647      1.0  0.43871  0.78144  0.32262  1.0000
  H   H648      1.0  0.34274  0.56129  0.25595  1.0000
  H   H649      1.0  0.13794  0.67661  0.20169  1.0000
  H   H650      1.0  0.32339  0.96133  0.26836  1.0000
  H   H651      1.0  0.03867  0.86206  0.33502  1.0000
  H   H652      1.0  0.17661  0.63794  0.39831  1.0000
  H   H653      1.0  0.46133  0.82339  0.33164  1.0000
  H   H654      1.0  0.36206  0.53867  0.26498  1.0000
  C   C475      1.0  0.16125  0.67975  0.32900  1.0000
  C   C476      1.0  0.32025  0.98150  0.39567  1.0000
  C   C477      1.0  0.01850  0.83875  0.26233  1.0000
  C   C478      1.0  0.17975  0.66125  0.27100  1.0000
  C   C479      1.0  0.48150  0.82025  0.20433  1.0000
  C   C480      1.0  0.33875  0.51850  0.33767  1.0000
  H   H655      1.0  0.13879  0.67390  0.31541  1.0000
  H   H656      1.0  0.32610  0.96490  0.38208  1.0000
  H   H657      1.0  0.03510  0.86121  0.24874  1.0000
  H   H658      1.0  0.17390  0.63879  0.28459  1.0000
  H   H659      1.0  0.46490  0.82610  0.21792  1.0000
  H   H660      1.0  0.36121  0.53510  0.35126  1.0000
  H   H661      1.0  0.15740  0.65820  0.34341  1.0000
  H   H662      1.0  0.34180  0.99920  0.21007  1.0000
  H   H663      1.0  0.00080  0.84260  0.27674  1.0000
  H   H664      1.0  0.15820  0.65740  0.25659  1.0000
  H   H665      1.0  0.49920  0.84180  0.38993  1.0000
  H   H666      1.0  0.34260  0.50080  0.32326  1.0000
  C   C481      1.0  0.18975  0.68975  0.30000  1.0000
  C   C482      1.0  0.31025  0.50000  0.36667  1.0000
  C   C483      1.0  1.00000  0.81025  0.23333  1.0000
  H   H667      1.0  0.19441  0.71192  0.28651  1.0000
  H   H668      1.0  0.28808  0.98249  0.35317  1.0000
  H   H669      1.0  0.01751  0.80559  0.21984  1.0000
  H   H670      1.0  0.21192  0.69441  0.31349  1.0000
  H   H671      1.0  0.48249  0.78808  0.24683  1.0000
  H   H672      1.0  0.30559  0.51751  0.38016  1.0000
  Zn  Zn43      1.0  0.16348  0.80299  0.50346  1.0000
  Zn  Zn44      1.0  0.19701  0.86048  0.57013  1.0000
  Zn  Zn45      1.0  0.13952  0.83653  0.43680  1.0000
  Zn  Zn46      1.0  0.30299  0.66347  0.49654  1.0000
  Zn  Zn47      1.0  0.36048  0.69701  0.42987  1.0000
  Zn  Zn48      1.0  0.33653  0.63951  0.56320  1.0000
  O   O127      1.0  0.20666  0.82560  0.54008  1.0000
  O   O128      1.0  0.17441  0.88106  0.40675  1.0000
  O   O129      1.0  0.11894  0.79334  0.47341  1.0000
  O   O130      1.0  0.32560  0.70666  0.45992  1.0000
  O   O131      1.0  0.38106  0.67441  0.59325  1.0000
  O   O132      1.0  0.29334  0.61894  0.52659  1.0000
  O   O133      1.0  0.17541  0.81877  0.41196  1.0000
  O   O134      1.0  0.18122  0.85664  0.47863  1.0000
  O   O135      1.0  0.14336  0.82459  0.54529  1.0000
  O   O136      1.0  0.31877  0.67541  0.58804  1.0000
  O   O137      1.0  0.35663  0.68122  0.52137  1.0000
  O   O138      1.0  0.32459  0.64336  0.45471  1.0000
  O   O139      1.0  0.18762  0.79136  0.45912  1.0000
  O   O140      1.0  0.20863  0.89626  0.52579  1.0000
  O   O141      1.0  0.10374  0.81238  0.59245  1.0000
  O   O142      1.0  0.29136  0.68762  0.54088  1.0000
  O   O143      1.0  0.39625  0.70863  0.47421  1.0000
  O   O144      1.0  0.31238  0.60374  0.40755  1.0000
  N   N85       1.0  0.14190  0.75035  0.52576  1.0000
  N   N86       1.0  0.24965  0.89155  0.59243  1.0000
  N   N87       1.0  0.10845  0.85810  0.45909  1.0000
  N   N88       1.0  0.25035  0.64190  0.47424  1.0000
  N   N89       1.0  0.39155  0.74965  0.40757  1.0000
  N   N90       1.0  0.35810  0.60845  0.54091  1.0000
  H   H673      1.0  0.12800  0.73543  0.50635  1.0000
  H   H674      1.0  0.26457  0.89257  0.57302  1.0000
  H   H675      1.0  0.10743  0.87200  0.43968  1.0000
  H   H676      1.0  0.23543  0.62800  0.49365  1.0000
  H   H677      1.0  0.39257  0.76457  0.42698  1.0000
  H   H678      1.0  0.37200  0.60743  0.56032  1.0000
  H   H679      1.0  0.16059  0.74650  0.52875  1.0000
  H   H680      1.0  0.25350  0.91409  0.59541  1.0000
  H   H681      1.0  0.08591  0.83941  0.46208  1.0000
  H   H682      1.0  0.24650  0.66059  0.47125  1.0000
  H   H683      1.0  0.41409  0.75350  0.40459  1.0000
  H   H684      1.0  0.33941  0.58591  0.53792  1.0000
  C   C484      1.0  0.22040  0.80770  0.55760  1.0000
  C   C485      1.0  0.19230  0.91270  0.42427  1.0000
  C   C486      1.0  0.08730  0.77960  0.49093  1.0000
  C   C487      1.0  0.30770  0.72040  0.44240  1.0000
  C   C488      1.0  0.41270  0.69230  0.57573  1.0000
  C   C489      1.0  0.27960  0.58730  0.50907  1.0000
  C   C490      1.0  0.21480  0.79715  0.59770  1.0000
  C   C491      1.0  0.20285  0.91765  0.46437  1.0000
  C   C492      1.0  0.08235  0.78520  0.53103  1.0000
  C   C493      1.0  0.29715  0.71480  0.40230  1.0000
  C   C494      1.0  0.41765  0.70285  0.53563  1.0000
  C   C495      1.0  0.28520  0.58235  0.46897  1.0000
  C   C496      1.0  0.23180  0.77985  0.41314  1.0000
  C   C497      1.0  0.22015  0.95195  0.47981  1.0000
  C   C498      1.0  0.04805  0.76820  0.54647  1.0000
  C   C499      1.0  0.27985  0.73180  0.58686  1.0000
  C   C500      1.0  0.45195  0.72015  0.52019  1.0000
  C   C501      1.0  0.26820  0.54805  0.45353  1.0000
  H   H685      1.0  0.22806  0.77308  0.44002  1.0000
  H   H686      1.0  0.22692  0.95498  0.50669  1.0000
  H   H687      1.0  0.04502  0.77194  0.57336  1.0000
  H   H688      1.0  0.27308  0.72806  0.55998  1.0000
  H   H689      1.0  0.45498  0.72692  0.49331  1.0000
  H   H690      1.0  0.27194  0.54502  0.42664  1.0000
  C   C502      1.0  0.25405  0.77195  0.59124  1.0000
  C   C503      1.0  0.22805  0.98210  0.45791  1.0000
  C   C504      1.0  0.01790  0.74595  0.52457  1.0000
  C   C505      1.0  0.27195  0.75405  0.40876  1.0000
  C   C506      1.0  0.48210  0.72805  0.54209  1.0000
  C   C507      1.0  0.24595  0.51790  0.47543  1.0000
  C   C508      1.0  0.25860  0.78175  0.55170  1.0000
  C   C509      1.0  0.21825  0.97685  0.41837  1.0000
  C   C510      1.0  0.02315  0.74140  0.48503  1.0000
  C   C511      1.0  0.28175  0.75860  0.44830  1.0000
  C   C512      1.0  0.47685  0.71825  0.58163  1.0000
  C   C513      1.0  0.24140  0.52315  0.51497  1.0000
  H   H691      1.0  0.27322  0.77633  0.53565  1.0000
  H   H692      1.0  0.22367  0.99688  0.40232  1.0000
  H   H693      1.0  0.00312  0.72678  0.46899  1.0000
  H   H694      1.0  0.27633  0.77322  0.46435  1.0000
  H   H695      1.0  0.49688  0.72366  0.59768  1.0000
  H   H696      1.0  0.22678  0.50312  0.53101  1.0000
  C   C514      1.0  0.24215  0.79920  0.53538  1.0000
  C   C515      1.0  0.20080  0.94295  0.40205  1.0000
  C   C516      1.0  0.05705  0.75785  0.46871  1.0000
  C   C517      1.0  0.29920  0.74215  0.46462  1.0000
  C   C518      1.0  0.44295  0.70080  0.59795  1.0000
  C   C519      1.0  0.25785  0.55705  0.53129  1.0000
  H   H697      1.0  0.24582  0.80549  0.50837  1.0000
  H   H698      1.0  0.19451  0.94033  0.57504  1.0000
  H   H699      1.0  0.05967  0.75418  0.44170  1.0000
  H   H700      1.0  0.30549  0.74582  0.49163  1.0000
  H   H701      1.0  0.44033  0.69451  0.42496  1.0000
  H   H702      1.0  0.25418  0.55967  0.55830  1.0000
  C   C520      1.0  0.19100  0.80295  0.42468  1.0000
  C   C521      1.0  0.19705  0.88805  0.49135  1.0000
  C   C522      1.0  0.11195  0.80900  0.55801  1.0000
  C   C523      1.0  0.30295  0.69100  0.57532  1.0000
  C   C524      1.0  0.38805  0.69705  0.50865  1.0000
  C   C525      1.0  0.30900  0.61195  0.44199  1.0000
  N   N91       1.0  0.16995  0.70745  0.55580  1.0000
  N   N92       1.0  0.29255  0.96250  0.42247  1.0000
  N   N93       1.0  0.03750  0.83005  0.48913  1.0000
  N   N94       1.0  0.20745  0.66995  0.44420  1.0000
  N   N95       1.0  0.46250  0.79255  0.57753  1.0000
  N   N96       1.0  0.33005  0.53750  0.51087  1.0000
  H   H703      1.0  0.17166  0.72635  0.54221  1.0000
  H   H704      1.0  0.27365  0.94531  0.40887  1.0000
  H   H705      1.0  0.05469  0.82834  0.47554  1.0000
  H   H706      1.0  0.22635  0.67166  0.45779  1.0000
  H   H707      1.0  0.44531  0.77365  0.59113  1.0000
  H   H708      1.0  0.32834  0.55469  0.52446  1.0000
  H   H709      1.0  0.19199  0.71426  0.56563  1.0000
  H   H710      1.0  0.28574  0.97773  0.43230  1.0000
  H   H711      1.0  0.02227  0.80801  0.49897  1.0000
  H   H712      1.0  0.21426  0.69199  0.43437  1.0000
  H   H713      1.0  0.47773  0.78574  0.56770  1.0000
  H   H714      1.0  0.30801  0.52227  0.50103  1.0000
  C   C526      1.0  0.12105  0.73795  0.56182  1.0000
  C   C527      1.0  0.26205  0.88310  0.42849  1.0000
  C   C528      1.0  0.11690  0.87895  0.49515  1.0000
  C   C529      1.0  0.23795  0.62105  0.43818  1.0000
  C   C530      1.0  0.38310  0.76205  0.57151  1.0000
  C   C531      1.0  0.37895  0.61690  0.50485  1.0000
  H   H715      1.0  0.09871  0.73858  0.55789  1.0000
  H   H716      1.0  0.26142  0.86012  0.42456  1.0000
  H   H717      1.0  0.13988  0.90129  0.49123  1.0000
  H   H718      1.0  0.23858  0.59871  0.44211  1.0000
  H   H719      1.0  0.36012  0.76142  0.57544  1.0000
  H   H720      1.0  0.40129  0.63988  0.50877  1.0000
  H   H721      1.0  0.13460  0.75517  0.58295  1.0000
  H   H722      1.0  0.24483  0.87943  0.44961  1.0000
  H   H723      1.0  0.12057  0.86540  0.51628  1.0000
  H   H724      1.0  0.25517  0.63460  0.41705  1.0000
  H   H725      1.0  0.37943  0.74483  0.55039  1.0000
  H   H726      1.0  0.36540  0.62056  0.48372  1.0000
  C   C532      1.0  0.11120  0.70095  0.57604  1.0000
  C   C533      1.0  0.29905  0.91025  0.44271  1.0000
  C   C534      1.0  0.08975  0.88880  0.50937  1.0000
  C   C535      1.0  0.20095  0.61120  0.42396  1.0000
  C   C536      1.0  0.41025  0.79905  0.55729  1.0000
  C   C537      1.0  0.38880  0.58975  0.49063  1.0000
  H   H727      1.0  0.09975  0.68356  0.55445  1.0000
  H   H728      1.0  0.31644  0.91619  0.42112  1.0000
  H   H729      1.0  0.08381  0.90026  0.48778  1.0000
  H   H730      1.0  0.18356  0.59974  0.44555  1.0000
  H   H731      1.0  0.41619  0.81644  0.57888  1.0000
  H   H732      1.0  0.40025  0.58381  0.51222  1.0000
  H   H733      1.0  0.09394  0.69392  0.59793  1.0000
  H   H734      1.0  0.30608  0.90002  0.46460  1.0000
  H   H735      1.0  0.09998  0.90606  0.53127  1.0000
  H   H736      1.0  0.19392  0.59394  0.40207  1.0000
  H   H737      1.0  0.40002  0.80608  0.53540  1.0000
  H   H738      1.0  0.40606  0.59998  0.46873  1.0000
  C   C538      1.0  0.14495  0.70020  0.59020  1.0000
  C   C539      1.0  0.29980  0.94475  0.45687  1.0000
  C   C540      1.0  0.05525  0.85505  0.52353  1.0000
  C   C541      1.0  0.20020  0.64495  0.40980  1.0000
  C   C542      1.0  0.44475  0.79980  0.54313  1.0000
  C   C543      1.0  0.35505  0.55525  0.47647  1.0000
  H   H739      1.0  0.15726  0.71856  0.41072  1.0000
  H   H740      1.0  0.28144  0.93871  0.47738  1.0000
  H   H741      1.0  0.06129  0.84274  0.54405  1.0000
  H   H742      1.0  0.21856  0.65726  0.58928  1.0000
  H   H743      1.0  0.43871  0.78144  0.52262  1.0000
  H   H744      1.0  0.34274  0.56129  0.45595  1.0000
  H   H745      1.0  0.13794  0.67661  0.40169  1.0000
  H   H746      1.0  0.32339  0.96133  0.46836  1.0000
  H   H747      1.0  0.03867  0.86206  0.53502  1.0000
  H   H748      1.0  0.17661  0.63794  0.59831  1.0000
  H   H749      1.0  0.46133  0.82339  0.53164  1.0000
  H   H750      1.0  0.36206  0.53867  0.46498  1.0000
  C   C544      1.0  0.16125  0.67975  0.52900  1.0000
  C   C545      1.0  0.32025  0.98150  0.59567  1.0000
  C   C546      1.0  0.01850  0.83875  0.46233  1.0000
  C   C547      1.0  0.17975  0.66125  0.47100  1.0000
  C   C548      1.0  0.48150  0.82025  0.40433  1.0000
  C   C549      1.0  0.33875  0.51850  0.53767  1.0000
  H   H751      1.0  0.13879  0.67390  0.51541  1.0000
  H   H752      1.0  0.32610  0.96490  0.58208  1.0000
  H   H753      1.0  0.03510  0.86121  0.44874  1.0000
  H   H754      1.0  0.17390  0.63879  0.48459  1.0000
  H   H755      1.0  0.46490  0.82610  0.41792  1.0000
  H   H756      1.0  0.36121  0.53510  0.55126  1.0000
  H   H757      1.0  0.15740  0.65820  0.54341  1.0000
  H   H758      1.0  0.34180  0.99920  0.41007  1.0000
  H   H759      1.0  0.00080  0.84260  0.47674  1.0000
  H   H760      1.0  0.15820  0.65740  0.45659  1.0000
  H   H761      1.0  0.49920  0.84180  0.58993  1.0000
  H   H762      1.0  0.34260  0.50080  0.52326  1.0000
  C   C550      1.0  0.18975  0.68975  0.50000  1.0000
  C   C551      1.0  0.31025  0.50000  0.56667  1.0000
  C   C552      1.0  1.00000  0.81025  0.43333  1.0000
  H   H763      1.0  0.19441  0.71192  0.48651  1.0000
  H   H764      1.0  0.28808  0.98249  0.55317  1.0000
  H   H765      1.0  0.01751  0.80559  0.41984  1.0000
  H   H766      1.0  0.21192  0.69441  0.51349  1.0000
  H   H767      1.0  0.48249  0.78808  0.44683  1.0000
  H   H768      1.0  0.30559  0.51751  0.58016  1.0000
  Zn  Zn49      1.0  0.16348  0.80299  0.70346  1.0000
  Zn  Zn50      1.0  0.19701  0.86048  0.77013  1.0000
  Zn  Zn51      1.0  0.13952  0.83653  0.63680  1.0000
  Zn  Zn52      1.0  0.30299  0.66347  0.69654  1.0000
  Zn  Zn53      1.0  0.36048  0.69701  0.62987  1.0000
  Zn  Zn54      1.0  0.33653  0.63951  0.76320  1.0000
  O   O145      1.0  0.20666  0.82560  0.74008  1.0000
  O   O146      1.0  0.17441  0.88106  0.60675  1.0000
  O   O147      1.0  0.11894  0.79334  0.67341  1.0000
  O   O148      1.0  0.32560  0.70666  0.65992  1.0000
  O   O149      1.0  0.38106  0.67441  0.79325  1.0000
  O   O150      1.0  0.29334  0.61894  0.72659  1.0000
  O   O151      1.0  0.17541  0.81877  0.61196  1.0000
  O   O152      1.0  0.18122  0.85664  0.67863  1.0000
  O   O153      1.0  0.14336  0.82459  0.74529  1.0000
  O   O154      1.0  0.31877  0.67541  0.78804  1.0000
  O   O155      1.0  0.35663  0.68122  0.72137  1.0000
  O   O156      1.0  0.32459  0.64336  0.65471  1.0000
  O   O157      1.0  0.18762  0.79136  0.65912  1.0000
  O   O158      1.0  0.20863  0.89626  0.72579  1.0000
  O   O159      1.0  0.10374  0.81238  0.79245  1.0000
  O   O160      1.0  0.29136  0.68762  0.74088  1.0000
  O   O161      1.0  0.39625  0.70863  0.67421  1.0000
  O   O162      1.0  0.31238  0.60374  0.60755  1.0000
  N   N97       1.0  0.14190  0.75035  0.72576  1.0000
  N   N98       1.0  0.24965  0.89155  0.79243  1.0000
  N   N99       1.0  0.10845  0.85810  0.65909  1.0000
  N   N100      1.0  0.25035  0.64190  0.67424  1.0000
  N   N101      1.0  0.39155  0.74965  0.60757  1.0000
  N   N102      1.0  0.35810  0.60845  0.74091  1.0000
  H   H769      1.0  0.12800  0.73543  0.70635  1.0000
  H   H770      1.0  0.26457  0.89257  0.77302  1.0000
  H   H771      1.0  0.10743  0.87200  0.63968  1.0000
  H   H772      1.0  0.23543  0.62800  0.69365  1.0000
  H   H773      1.0  0.39257  0.76457  0.62698  1.0000
  H   H774      1.0  0.37200  0.60743  0.76032  1.0000
  H   H775      1.0  0.16059  0.74650  0.72875  1.0000
  H   H776      1.0  0.25350  0.91409  0.79541  1.0000
  H   H777      1.0  0.08591  0.83941  0.66208  1.0000
  H   H778      1.0  0.24650  0.66059  0.67125  1.0000
  H   H779      1.0  0.41409  0.75350  0.60459  1.0000
  H   H780      1.0  0.33941  0.58591  0.73792  1.0000
  C   C553      1.0  0.22040  0.80770  0.75760  1.0000
  C   C554      1.0  0.19230  0.91270  0.62427  1.0000
  C   C555      1.0  0.08730  0.77960  0.69093  1.0000
  C   C556      1.0  0.30770  0.72040  0.64240  1.0000
  C   C557      1.0  0.41270  0.69230  0.77573  1.0000
  C   C558      1.0  0.27960  0.58730  0.70907  1.0000
  C   C559      1.0  0.21480  0.79715  0.79770  1.0000
  C   C560      1.0  0.20285  0.91765  0.66437  1.0000
  C   C561      1.0  0.08235  0.78520  0.73103  1.0000
  C   C562      1.0  0.29715  0.71480  0.60230  1.0000
  C   C563      1.0  0.41765  0.70285  0.73563  1.0000
  C   C564      1.0  0.28520  0.58235  0.66897  1.0000
  C   C565      1.0  0.23180  0.77985  0.61314  1.0000
  C   C566      1.0  0.22015  0.95195  0.67981  1.0000
  C   C567      1.0  0.04805  0.76820  0.74647  1.0000
  C   C568      1.0  0.27985  0.73180  0.78686  1.0000
  C   C569      1.0  0.45195  0.72015  0.72019  1.0000
  C   C570      1.0  0.26820  0.54805  0.65353  1.0000
  H   H781      1.0  0.22806  0.77308  0.64002  1.0000
  H   H782      1.0  0.22692  0.95498  0.70669  1.0000
  H   H783      1.0  0.04502  0.77194  0.77336  1.0000
  H   H784      1.0  0.27308  0.72806  0.75998  1.0000
  H   H785      1.0  0.45498  0.72692  0.69331  1.0000
  H   H786      1.0  0.27194  0.54502  0.62664  1.0000
  C   C571      1.0  0.25405  0.77195  0.79124  1.0000
  C   C572      1.0  0.22805  0.98210  0.65791  1.0000
  C   C573      1.0  0.01790  0.74595  0.72457  1.0000
  C   C574      1.0  0.27195  0.75405  0.60876  1.0000
  C   C575      1.0  0.48210  0.72805  0.74209  1.0000
  C   C576      1.0  0.24595  0.51790  0.67543  1.0000
  C   C577      1.0  0.25860  0.78175  0.75170  1.0000
  C   C578      1.0  0.21825  0.97685  0.61837  1.0000
  C   C579      1.0  0.02315  0.74140  0.68503  1.0000
  C   C580      1.0  0.28175  0.75860  0.64830  1.0000
  C   C581      1.0  0.47685  0.71825  0.78163  1.0000
  C   C582      1.0  0.24140  0.52315  0.71497  1.0000
  H   H787      1.0  0.27322  0.77633  0.73565  1.0000
  H   H788      1.0  0.22367  0.99688  0.60232  1.0000
  H   H789      1.0  0.00312  0.72678  0.66899  1.0000
  H   H790      1.0  0.27633  0.77322  0.66435  1.0000
  H   H791      1.0  0.49688  0.72366  0.79768  1.0000
  H   H792      1.0  0.22678  0.50312  0.73101  1.0000
  C   C583      1.0  0.24215  0.79920  0.73538  1.0000
  C   C584      1.0  0.20080  0.94295  0.60205  1.0000
  C   C585      1.0  0.05705  0.75785  0.66871  1.0000
  C   C586      1.0  0.29920  0.74215  0.66462  1.0000
  C   C587      1.0  0.44295  0.70080  0.79795  1.0000
  C   C588      1.0  0.25785  0.55705  0.73129  1.0000
  H   H793      1.0  0.24582  0.80549  0.70837  1.0000
  H   H794      1.0  0.19451  0.94033  0.77504  1.0000
  H   H795      1.0  0.05967  0.75418  0.64170  1.0000
  H   H796      1.0  0.30549  0.74582  0.69163  1.0000
  H   H797      1.0  0.44033  0.69451  0.62496  1.0000
  H   H798      1.0  0.25418  0.55967  0.75830  1.0000
  C   C589      1.0  0.19100  0.80295  0.62468  1.0000
  C   C590      1.0  0.19705  0.88805  0.69135  1.0000
  C   C591      1.0  0.11195  0.80900  0.75801  1.0000
  C   C592      1.0  0.30295  0.69100  0.77532  1.0000
  C   C593      1.0  0.38805  0.69705  0.70865  1.0000
  C   C594      1.0  0.30900  0.61195  0.64199  1.0000
  N   N103      1.0  0.16995  0.70745  0.75580  1.0000
  N   N104      1.0  0.29255  0.96250  0.62247  1.0000
  N   N105      1.0  0.03750  0.83005  0.68913  1.0000
  N   N106      1.0  0.20745  0.66995  0.64420  1.0000
  N   N107      1.0  0.46250  0.79255  0.77753  1.0000
  N   N108      1.0  0.33005  0.53750  0.71087  1.0000
  H   H799      1.0  0.17166  0.72635  0.74221  1.0000
  H   H800      1.0  0.27365  0.94531  0.60887  1.0000
  H   H801      1.0  0.05469  0.82834  0.67554  1.0000
  H   H802      1.0  0.22635  0.67166  0.65779  1.0000
  H   H803      1.0  0.44531  0.77365  0.79113  1.0000
  H   H804      1.0  0.32834  0.55469  0.72446  1.0000
  H   H805      1.0  0.19199  0.71426  0.76564  1.0000
  H   H806      1.0  0.28574  0.97773  0.63230  1.0000
  H   H807      1.0  0.02227  0.80801  0.69897  1.0000
  H   H808      1.0  0.21426  0.69199  0.63437  1.0000
  H   H809      1.0  0.47773  0.78574  0.76770  1.0000
  H   H810      1.0  0.30801  0.52227  0.70103  1.0000
  C   C595      1.0  0.12105  0.73795  0.76182  1.0000
  C   C596      1.0  0.26205  0.88310  0.62849  1.0000
  C   C597      1.0  0.11690  0.87895  0.69515  1.0000
  C   C598      1.0  0.23795  0.62105  0.63818  1.0000
  C   C599      1.0  0.38310  0.76205  0.77151  1.0000
  C   C600      1.0  0.37895  0.61690  0.70485  1.0000
  H   H811      1.0  0.09871  0.73858  0.75789  1.0000
  H   H812      1.0  0.26142  0.86012  0.62456  1.0000
  H   H813      1.0  0.13988  0.90129  0.69123  1.0000
  H   H814      1.0  0.23858  0.59871  0.64211  1.0000
  H   H815      1.0  0.36012  0.76142  0.77544  1.0000
  H   H816      1.0  0.40129  0.63988  0.70877  1.0000
  H   H817      1.0  0.13460  0.75517  0.78295  1.0000
  H   H818      1.0  0.24483  0.87943  0.64961  1.0000
  H   H819      1.0  0.12057  0.86540  0.71628  1.0000
  H   H820      1.0  0.25517  0.63460  0.61705  1.0000
  H   H821      1.0  0.37943  0.74483  0.75039  1.0000
  H   H822      1.0  0.36540  0.62056  0.68372  1.0000
  C   C601      1.0  0.11120  0.70095  0.77604  1.0000
  C   C602      1.0  0.29905  0.91025  0.64271  1.0000
  C   C603      1.0  0.08975  0.88880  0.70937  1.0000
  C   C604      1.0  0.20095  0.61120  0.62396  1.0000
  C   C605      1.0  0.41025  0.79905  0.75729  1.0000
  C   C606      1.0  0.38880  0.58975  0.69063  1.0000
  H   H823      1.0  0.09975  0.68356  0.75445  1.0000
  H   H824      1.0  0.31644  0.91619  0.62112  1.0000
  H   H825      1.0  0.08381  0.90026  0.68778  1.0000
  H   H826      1.0  0.18356  0.59974  0.64555  1.0000
  H   H827      1.0  0.41619  0.81644  0.77888  1.0000
  H   H828      1.0  0.40025  0.58381  0.71222  1.0000
  H   H829      1.0  0.09394  0.69392  0.79793  1.0000
  H   H830      1.0  0.30608  0.90002  0.66460  1.0000
  H   H831      1.0  0.09998  0.90606  0.73127  1.0000
  H   H832      1.0  0.19392  0.59394  0.60207  1.0000
  H   H833      1.0  0.40002  0.80608  0.73540  1.0000
  H   H834      1.0  0.40606  0.59998  0.66873  1.0000
  C   C607      1.0  0.14495  0.70020  0.79020  1.0000
  C   C608      1.0  0.29980  0.94475  0.65687  1.0000
  C   C609      1.0  0.05525  0.85505  0.72353  1.0000
  C   C610      1.0  0.20020  0.64495  0.60980  1.0000
  C   C611      1.0  0.44475  0.79980  0.74313  1.0000
  C   C612      1.0  0.35505  0.55525  0.67647  1.0000
  H   H835      1.0  0.15726  0.71856  0.61072  1.0000
  H   H836      1.0  0.28144  0.93871  0.67738  1.0000
  H   H837      1.0  0.06129  0.84274  0.74405  1.0000
  H   H838      1.0  0.21856  0.65726  0.78928  1.0000
  H   H839      1.0  0.43871  0.78144  0.72262  1.0000
  H   H840      1.0  0.34274  0.56129  0.65595  1.0000
  H   H841      1.0  0.13794  0.67661  0.60169  1.0000
  H   H842      1.0  0.32339  0.96133  0.66836  1.0000
  H   H843      1.0  0.03867  0.86206  0.73502  1.0000
  H   H844      1.0  0.17661  0.63794  0.79831  1.0000
  H   H845      1.0  0.46133  0.82339  0.73164  1.0000
  H   H846      1.0  0.36206  0.53867  0.66498  1.0000
  C   C613      1.0  0.16125  0.67975  0.72900  1.0000
  C   C614      1.0  0.32025  0.98150  0.79567  1.0000
  C   C615      1.0  0.01850  0.83875  0.66233  1.0000
  C   C616      1.0  0.17975  0.66125  0.67100  1.0000
  C   C617      1.0  0.48150  0.82025  0.60433  1.0000
  C   C618      1.0  0.33875  0.51850  0.73767  1.0000
  H   H847      1.0  0.13879  0.67390  0.71541  1.0000
  H   H848      1.0  0.32610  0.96490  0.78208  1.0000
  H   H849      1.0  0.03510  0.86121  0.64874  1.0000
  H   H850      1.0  0.17390  0.63879  0.68459  1.0000
  H   H851      1.0  0.46490  0.82610  0.61792  1.0000
  H   H852      1.0  0.36121  0.53510  0.75126  1.0000
  H   H853      1.0  0.15740  0.65820  0.74341  1.0000
  H   H854      1.0  0.34180  0.99920  0.61007  1.0000
  H   H855      1.0  0.00080  0.84260  0.67674  1.0000
  H   H856      1.0  0.15820  0.65740  0.65659  1.0000
  H   H857      1.0  0.49920  0.84180  0.78993  1.0000
  H   H858      1.0  0.34260  0.50080  0.72326  1.0000
  C   C619      1.0  0.18975  0.68975  0.70000  1.0000
  C   C620      1.0  0.31025  0.50000  0.76667  1.0000
  C   C621      1.0  1.00000  0.81025  0.63333  1.0000
  H   H859      1.0  0.19441  0.71192  0.68651  1.0000
  H   H860      1.0  0.28808  0.98249  0.75317  1.0000
  H   H861      1.0  0.01751  0.80559  0.61984  1.0000
  H   H862      1.0  0.21192  0.69441  0.71349  1.0000
  H   H863      1.0  0.48249  0.78808  0.64683  1.0000
  H   H864      1.0  0.30559  0.51751  0.78016  1.0000
  Zn  Zn55      1.0  0.16348  0.80299  0.90346  1.0000
  Zn  Zn56      1.0  0.19701  0.86048  0.97013  1.0000
  Zn  Zn57      1.0  0.13952  0.83653  0.83680  1.0000
  Zn  Zn58      1.0  0.30299  0.66347  0.89654  1.0000
  Zn  Zn59      1.0  0.36048  0.69701  0.82987  1.0000
  Zn  Zn60      1.0  0.33653  0.63951  0.96320  1.0000
  O   O163      1.0  0.20666  0.82560  0.94008  1.0000
  O   O164      1.0  0.17441  0.88106  0.80675  1.0000
  O   O165      1.0  0.11894  0.79334  0.87341  1.0000
  O   O166      1.0  0.32560  0.70666  0.85992  1.0000
  O   O167      1.0  0.38106  0.67441  0.99325  1.0000
  O   O168      1.0  0.29334  0.61894  0.92659  1.0000
  O   O169      1.0  0.17541  0.81877  0.81196  1.0000
  O   O170      1.0  0.18122  0.85664  0.87863  1.0000
  O   O171      1.0  0.14336  0.82459  0.94529  1.0000
  O   O172      1.0  0.31877  0.67541  0.98804  1.0000
  O   O173      1.0  0.35663  0.68122  0.92137  1.0000
  O   O174      1.0  0.32459  0.64336  0.85471  1.0000
  O   O175      1.0  0.18762  0.79136  0.85912  1.0000
  O   O176      1.0  0.20863  0.89626  0.92579  1.0000
  O   O177      1.0  0.10374  0.81238  0.99245  1.0000
  O   O178      1.0  0.29136  0.68762  0.94088  1.0000
  O   O179      1.0  0.39625  0.70863  0.87421  1.0000
  O   O180      1.0  0.31238  0.60374  0.80755  1.0000
  N   N109      1.0  0.14190  0.75035  0.92576  1.0000
  N   N110      1.0  0.24965  0.89155  0.99243  1.0000
  N   N111      1.0  0.10845  0.85810  0.85909  1.0000
  N   N112      1.0  0.25035  0.64190  0.87424  1.0000
  N   N113      1.0  0.39155  0.74965  0.80757  1.0000
  N   N114      1.0  0.35810  0.60845  0.94091  1.0000
  H   H865      1.0  0.12800  0.73543  0.90635  1.0000
  H   H866      1.0  0.26457  0.89257  0.97302  1.0000
  H   H867      1.0  0.10743  0.87200  0.83968  1.0000
  H   H868      1.0  0.23543  0.62800  0.89365  1.0000
  H   H869      1.0  0.39257  0.76457  0.82698  1.0000
  H   H870      1.0  0.37200  0.60743  0.96032  1.0000
  H   H871      1.0  0.16059  0.74650  0.92875  1.0000
  H   H872      1.0  0.25350  0.91409  0.99541  1.0000
  H   H873      1.0  0.08591  0.83941  0.86208  1.0000
  H   H874      1.0  0.24650  0.66059  0.87125  1.0000
  H   H875      1.0  0.41409  0.75350  0.80459  1.0000
  H   H876      1.0  0.33941  0.58591  0.93792  1.0000
  C   C622      1.0  0.22040  0.80770  0.95760  1.0000
  C   C623      1.0  0.19230  0.91270  0.82427  1.0000
  C   C624      1.0  0.08730  0.77960  0.89093  1.0000
  C   C625      1.0  0.30770  0.72040  0.84240  1.0000
  C   C626      1.0  0.41270  0.69230  0.97573  1.0000
  C   C627      1.0  0.27960  0.58730  0.90907  1.0000
  C   C628      1.0  0.21480  0.79715  0.99770  1.0000
  C   C629      1.0  0.20285  0.91765  0.86437  1.0000
  C   C630      1.0  0.08235  0.78520  0.93103  1.0000
  C   C631      1.0  0.29715  0.71480  0.80230  1.0000
  C   C632      1.0  0.41765  0.70285  0.93563  1.0000
  C   C633      1.0  0.28520  0.58235  0.86897  1.0000
  C   C634      1.0  0.23180  0.77985  0.81314  1.0000
  C   C635      1.0  0.22015  0.95195  0.87981  1.0000
  C   C636      1.0  0.04805  0.76820  0.94647  1.0000
  C   C637      1.0  0.27985  0.73180  0.98686  1.0000
  C   C638      1.0  0.45195  0.72015  0.92019  1.0000
  C   C639      1.0  0.26820  0.54805  0.85353  1.0000
  H   H877      1.0  0.22806  0.77308  0.84002  1.0000
  H   H878      1.0  0.22692  0.95498  0.90669  1.0000
  H   H879      1.0  0.04502  0.77194  0.97336  1.0000
  H   H880      1.0  0.27308  0.72806  0.95998  1.0000
  H   H881      1.0  0.45498  0.72692  0.89331  1.0000
  H   H882      1.0  0.27194  0.54502  0.82664  1.0000
  C   C640      1.0  0.25405  0.77195  0.99124  1.0000
  C   C641      1.0  0.22805  0.98210  0.85791  1.0000
  C   C642      1.0  0.01790  0.74595  0.92457  1.0000
  C   C643      1.0  0.27195  0.75405  0.80876  1.0000
  C   C644      1.0  0.48210  0.72805  0.94209  1.0000
  C   C645      1.0  0.24595  0.51790  0.87543  1.0000
  C   C646      1.0  0.25860  0.78175  0.95170  1.0000
  C   C647      1.0  0.21825  0.97685  0.81837  1.0000
  C   C648      1.0  0.02315  0.74140  0.88503  1.0000
  C   C649      1.0  0.28175  0.75860  0.84830  1.0000
  C   C650      1.0  0.47685  0.71825  0.98163  1.0000
  C   C651      1.0  0.24140  0.52315  0.91497  1.0000
  H   H883      1.0  0.27322  0.77633  0.93565  1.0000
  H   H884      1.0  0.22367  0.99688  0.80232  1.0000
  H   H885      1.0  0.00312  0.72678  0.86899  1.0000
  H   H886      1.0  0.27633  0.77322  0.86435  1.0000
  H   H887      1.0  0.49688  0.72366  0.99768  1.0000
  H   H888      1.0  0.22678  0.50312  0.93101  1.0000
  C   C652      1.0  0.24215  0.79920  0.93538  1.0000
  C   C653      1.0  0.20080  0.94295  0.80205  1.0000
  C   C654      1.0  0.05705  0.75785  0.86871  1.0000
  C   C655      1.0  0.29920  0.74215  0.86462  1.0000
  C   C656      1.0  0.44295  0.70080  0.99795  1.0000
  C   C657      1.0  0.25785  0.55705  0.93129  1.0000
  H   H889      1.0  0.24582  0.80549  0.90837  1.0000
  H   H890      1.0  0.19451  0.94033  0.97504  1.0000
  H   H891      1.0  0.05967  0.75418  0.84170  1.0000
  H   H892      1.0  0.30549  0.74582  0.89163  1.0000
  H   H893      1.0  0.44033  0.69451  0.82496  1.0000
  H   H894      1.0  0.25418  0.55967  0.95830  1.0000
  C   C658      1.0  0.19100  0.80295  0.82468  1.0000
  C   C659      1.0  0.19705  0.88805  0.89135  1.0000
  C   C660      1.0  0.11195  0.80900  0.95801  1.0000
  C   C661      1.0  0.30295  0.69100  0.97532  1.0000
  C   C662      1.0  0.38805  0.69705  0.90865  1.0000
  C   C663      1.0  0.30900  0.61195  0.84199  1.0000
  N   N115      1.0  0.16995  0.70745  0.95580  1.0000
  N   N116      1.0  0.29255  0.96250  0.82247  1.0000
  N   N117      1.0  0.03750  0.83005  0.88913  1.0000
  N   N118      1.0  0.20745  0.66995  0.84420  1.0000
  N   N119      1.0  0.46250  0.79255  0.97753  1.0000
  N   N120      1.0  0.33005  0.53750  0.91087  1.0000
  H   H895      1.0  0.17166  0.72635  0.94221  1.0000
  H   H896      1.0  0.27365  0.94531  0.80887  1.0000
  H   H897      1.0  0.05469  0.82834  0.87554  1.0000
  H   H898      1.0  0.22635  0.67166  0.85779  1.0000
  H   H899      1.0  0.44531  0.77365  0.99113  1.0000
  H   H900      1.0  0.32834  0.55469  0.92446  1.0000
  H   H901      1.0  0.19199  0.71426  0.96564  1.0000
  H   H902      1.0  0.28574  0.97773  0.83230  1.0000
  H   H903      1.0  0.02227  0.80801  0.89897  1.0000
  H   H904      1.0  0.21426  0.69199  0.83437  1.0000
  H   H905      1.0  0.47773  0.78574  0.96770  1.0000
  H   H906      1.0  0.30801  0.52227  0.90103  1.0000
  C   C664      1.0  0.12105  0.73795  0.96182  1.0000
  C   C665      1.0  0.26205  0.88310  0.82849  1.0000
  C   C666      1.0  0.11690  0.87895  0.89515  1.0000
  C   C667      1.0  0.23795  0.62105  0.83818  1.0000
  C   C668      1.0  0.38310  0.76205  0.97151  1.0000
  C   C669      1.0  0.37895  0.61690  0.90485  1.0000
  H   H907      1.0  0.09871  0.73858  0.95789  1.0000
  H   H908      1.0  0.26142  0.86012  0.82456  1.0000
  H   H909      1.0  0.13988  0.90129  0.89123  1.0000
  H   H910      1.0  0.23858  0.59871  0.84211  1.0000
  H   H911      1.0  0.36012  0.76142  0.97544  1.0000
  H   H912      1.0  0.40129  0.63988  0.90877  1.0000
  H   H913      1.0  0.13460  0.75517  0.98295  1.0000
  H   H914      1.0  0.24483  0.87943  0.84961  1.0000
  H   H915      1.0  0.12057  0.86540  0.91628  1.0000
  H   H916      1.0  0.25517  0.63460  0.81705  1.0000
  H   H917      1.0  0.37943  0.74483  0.95039  1.0000
  H   H918      1.0  0.36540  0.62056  0.88372  1.0000
  C   C670      1.0  0.11120  0.70095  0.97604  1.0000
  C   C671      1.0  0.29905  0.91025  0.84271  1.0000
  C   C672      1.0  0.08975  0.88880  0.90937  1.0000
  C   C673      1.0  0.20095  0.61120  0.82396  1.0000
  C   C674      1.0  0.41025  0.79905  0.95729  1.0000
  C   C675      1.0  0.38880  0.58975  0.89063  1.0000
  H   H919      1.0  0.09975  0.68356  0.95445  1.0000
  H   H920      1.0  0.31644  0.91619  0.82112  1.0000
  H   H921      1.0  0.08381  0.90026  0.88778  1.0000
  H   H922      1.0  0.18356  0.59974  0.84555  1.0000
  H   H923      1.0  0.41619  0.81644  0.97888  1.0000
  H   H924      1.0  0.40025  0.58381  0.91222  1.0000
  H   H925      1.0  0.09394  0.69392  0.99793  1.0000
  H   H926      1.0  0.30608  0.90002  0.86460  1.0000
  H   H927      1.0  0.09998  0.90606  0.93127  1.0000
  H   H928      1.0  0.19392  0.59394  0.80207  1.0000
  H   H929      1.0  0.40002  0.80608  0.93540  1.0000
  H   H930      1.0  0.40606  0.59998  0.86873  1.0000
  C   C676      1.0  0.14495  0.70020  0.99020  1.0000
  C   C677      1.0  0.29980  0.94475  0.85687  1.0000
  C   C678      1.0  0.05525  0.85505  0.92353  1.0000
  C   C679      1.0  0.20020  0.64495  0.80980  1.0000
  C   C680      1.0  0.44475  0.79980  0.94313  1.0000
  C   C681      1.0  0.35505  0.55525  0.87647  1.0000
  H   H931      1.0  0.15726  0.71856  0.81072  1.0000
  H   H932      1.0  0.28144  0.93871  0.87738  1.0000
  H   H933      1.0  0.06129  0.84274  0.94405  1.0000
  H   H934      1.0  0.21856  0.65726  0.98928  1.0000
  H   H935      1.0  0.43871  0.78144  0.92262  1.0000
  H   H936      1.0  0.34274  0.56129  0.85595  1.0000
  H   H937      1.0  0.13794  0.67661  0.80169  1.0000
  H   H938      1.0  0.32339  0.96133  0.86836  1.0000
  H   H939      1.0  0.03867  0.86206  0.93502  1.0000
  H   H940      1.0  0.17661  0.63794  0.99831  1.0000
  H   H941      1.0  0.46133  0.82339  0.93164  1.0000
  H   H942      1.0  0.36206  0.53867  0.86498  1.0000
  C   C682      1.0  0.16125  0.67975  0.92900  1.0000
  C   C683      1.0  0.32025  0.98150  0.99567  1.0000
  C   C684      1.0  0.01850  0.83875  0.86233  1.0000
  C   C685      1.0  0.17975  0.66125  0.87100  1.0000
  C   C686      1.0  0.48150  0.82025  0.80433  1.0000
  C   C687      1.0  0.33875  0.51850  0.93767  1.0000
  H   H943      1.0  0.13879  0.67390  0.91541  1.0000
  H   H944      1.0  0.32610  0.96490  0.98208  1.0000
  H   H945      1.0  0.03510  0.86121  0.84874  1.0000
  H   H946      1.0  0.17390  0.63879  0.88459  1.0000
  H   H947      1.0  0.46490  0.82610  0.81792  1.0000
  H   H948      1.0  0.36121  0.53510  0.95126  1.0000
  H   H949      1.0  0.15740  0.65820  0.94341  1.0000
  H   H950      1.0  0.34180  0.99920  0.81007  1.0000
  H   H951      1.0  0.00080  0.84260  0.87674  1.0000
  H   H952      1.0  0.15820  0.65740  0.85659  1.0000
  H   H953      1.0  0.49920  0.84180  0.98993  1.0000
  H   H954      1.0  0.34260  0.50080  0.92326  1.0000
  C   C688      1.0  0.18975  0.68975  0.90000  1.0000
  C   C689      1.0  0.31025  0.50000  0.96667  1.0000
  C   C690      1.0  1.00000  0.81025  0.83333  1.0000
  H   H955      1.0  0.19441  0.71192  0.88651  1.0000
  H   H956      1.0  0.28808  0.98249  0.95317  1.0000
  H   H957      1.0  0.01751  0.80559  0.81984  1.0000
  H   H958      1.0  0.21192  0.69441  0.91349  1.0000
  H   H959      1.0  0.48249  0.78808  0.84683  1.0000
  H   H960      1.0  0.30559  0.51751  0.98016  1.0000
  Zn  Zn61      1.0  0.66347  0.30299  0.10346  1.0000
  Zn  Zn62      1.0  0.69701  0.36048  0.17013  1.0000
  Zn  Zn63      1.0  0.63951  0.33653  0.03680  1.0000
  Zn  Zn64      1.0  0.80299  0.16347  0.09654  1.0000
  Zn  Zn65      1.0  0.86048  0.19701  0.02987  1.0000
  Zn  Zn66      1.0  0.83652  0.13952  0.16320  1.0000
  O   O181      1.0  0.70666  0.32560  0.14008  1.0000
  O   O182      1.0  0.67440  0.38106  0.00675  1.0000
  O   O183      1.0  0.61894  0.29334  0.07341  1.0000
  O   O184      1.0  0.82560  0.20666  0.05992  1.0000
  O   O185      1.0  0.88106  0.17440  0.19325  1.0000
  O   O186      1.0  0.79334  0.11894  0.12659  1.0000
  O   O187      1.0  0.67541  0.31877  0.01196  1.0000
  O   O188      1.0  0.68122  0.35663  0.07863  1.0000
  O   O189      1.0  0.64336  0.32459  0.14529  1.0000
  O   O190      1.0  0.81877  0.17541  0.18804  1.0000
  O   O191      1.0  0.85664  0.18123  0.12137  1.0000
  O   O192      1.0  0.82459  0.14336  0.05471  1.0000
  O   O193      1.0  0.68762  0.29136  0.05912  1.0000
  O   O194      1.0  0.70864  0.39626  0.12579  1.0000
  O   O195      1.0  0.60374  0.31238  0.19245  1.0000
  O   O196      1.0  0.79136  0.18762  0.14088  1.0000
  O   O197      1.0  0.89626  0.20864  0.07421  1.0000
  O   O198      1.0  0.81238  0.10374  0.00755  1.0000
  N   N121      1.0  0.64190  0.25035  0.12576  1.0000
  N   N122      1.0  0.74965  0.39155  0.19243  1.0000
  N   N123      1.0  0.60845  0.35810  0.05909  1.0000
  N   N124      1.0  0.75035  0.14190  0.07424  1.0000
  N   N125      1.0  0.89155  0.24965  0.00757  1.0000
  N   N126      1.0  0.85810  0.10845  0.14091  1.0000
  H   H961      1.0  0.62800  0.23543  0.10635  1.0000
  H   H962      1.0  0.76457  0.39257  0.17302  1.0000
  H   H963      1.0  0.60743  0.37200  0.03968  1.0000
  H   H964      1.0  0.73543  0.12800  0.09365  1.0000
  H   H965      1.0  0.89257  0.26457  0.02698  1.0000
  H   H966      1.0  0.87200  0.10743  0.16032  1.0000
  H   H967      1.0  0.66059  0.24650  0.12875  1.0000
  H   H968      1.0  0.75350  0.41409  0.19541  1.0000
  H   H969      1.0  0.58591  0.33941  0.06208  1.0000
  H   H970      1.0  0.74650  0.16059  0.07125  1.0000
  H   H971      1.0  0.91409  0.25350  0.00459  1.0000
  H   H972      1.0  0.83941  0.08591  0.13792  1.0000
  C   C691      1.0  0.72040  0.30770  0.15760  1.0000
  C   C692      1.0  0.69230  0.41270  0.02427  1.0000
  C   C693      1.0  0.58730  0.27960  0.09093  1.0000
  C   C694      1.0  0.80770  0.22040  0.04240  1.0000
  C   C695      1.0  0.91270  0.19230  0.17573  1.0000
  C   C696      1.0  0.77960  0.08730  0.10907  1.0000
  C   C697      1.0  0.71480  0.29715  0.19770  1.0000
  C   C698      1.0  0.70285  0.41765  0.06437  1.0000
  C   C699      1.0  0.58235  0.28520  0.13103  1.0000
  C   C700      1.0  0.79715  0.21480  0.00230  1.0000
  C   C701      1.0  0.91765  0.20285  0.13563  1.0000
  C   C702      1.0  0.78520  0.08235  0.06897  1.0000
  C   C703      1.0  0.73180  0.27985  0.01314  1.0000
  C   C704      1.0  0.72015  0.45195  0.07981  1.0000
  C   C705      1.0  0.54805  0.26820  0.14647  1.0000
  C   C706      1.0  0.77985  0.23180  0.18686  1.0000
  C   C707      1.0  0.95195  0.22015  0.12019  1.0000
  C   C708      1.0  0.76820  0.04805  0.05353  1.0000
  H   H973      1.0  0.72806  0.27308  0.04002  1.0000
  H   H974      1.0  0.72692  0.45498  0.10669  1.0000
  H   H975      1.0  0.54502  0.27194  0.17336  1.0000
  H   H976      1.0  0.77308  0.22806  0.15998  1.0000
  H   H977      1.0  0.95498  0.22692  0.09331  1.0000
  H   H978      1.0  0.77194  0.04502  0.02664  1.0000
  C   C709      1.0  0.75405  0.27195  0.19124  1.0000
  C   C710      1.0  0.72805  0.48210  0.05791  1.0000
  C   C711      1.0  0.51790  0.24595  0.12457  1.0000
  C   C712      1.0  0.77195  0.25405  0.00876  1.0000
  C   C713      1.0  0.98210  0.22805  0.14209  1.0000
  C   C714      1.0  0.74595  0.01790  0.07543  1.0000
  C   C715      1.0  0.75860  0.28175  0.15170  1.0000
  C   C716      1.0  0.71825  0.47685  0.01837  1.0000
  C   C717      1.0  0.52315  0.24140  0.08503  1.0000
  C   C718      1.0  0.78175  0.25860  0.04830  1.0000
  C   C719      1.0  0.97685  0.21825  0.18163  1.0000
  C   C720      1.0  0.74140  0.02315  0.11497  1.0000
  H   H979      1.0  0.77322  0.27633  0.13565  1.0000
  H   H980      1.0  0.72367  0.49688  0.00232  1.0000
  H   H981      1.0  0.50312  0.22678  0.06899  1.0000
  H   H982      1.0  0.77633  0.27322  0.06435  1.0000
  H   H983      1.0  0.99688  0.22366  0.19768  1.0000
  H   H984      1.0  0.72678  0.00312  0.13101  1.0000
  C   C721      1.0  0.74215  0.29920  0.13538  1.0000
  C   C722      1.0  0.70080  0.44295  0.00205  1.0000
  C   C723      1.0  0.55705  0.25785  0.06871  1.0000
  C   C724      1.0  0.79920  0.24215  0.06462  1.0000
  C   C725      1.0  0.94295  0.20080  0.19795  1.0000
  C   C726      1.0  0.75785  0.05705  0.13129  1.0000
  H   H985      1.0  0.74582  0.30549  0.10837  1.0000
  H   H986      1.0  0.69451  0.44033  0.17504  1.0000
  H   H987      1.0  0.55967  0.25418  0.04170  1.0000
  H   H988      1.0  0.80549  0.24582  0.09163  1.0000
  H   H989      1.0  0.94033  0.19451  0.02496  1.0000
  H   H990      1.0  0.75418  0.05967  0.15830  1.0000
  C   C727      1.0  0.69100  0.30295  0.02468  1.0000
  C   C728      1.0  0.69705  0.38805  0.09135  1.0000
  C   C729      1.0  0.61195  0.30900  0.15801  1.0000
  C   C730      1.0  0.80295  0.19100  0.17532  1.0000
  C   C731      1.0  0.88805  0.19705  0.10865  1.0000
  C   C732      1.0  0.80900  0.11195  0.04199  1.0000
  N   N127      1.0  0.66995  0.20745  0.15580  1.0000
  N   N128      1.0  0.79255  0.46250  0.02247  1.0000
  N   N129      1.0  0.53750  0.33005  0.08913  1.0000
  N   N130      1.0  0.70745  0.16995  0.04420  1.0000
  N   N131      1.0  0.96250  0.29255  0.17753  1.0000
  N   N132      1.0  0.83005  0.03750  0.11087  1.0000
  H   H991      1.0  0.67166  0.22635  0.14221  1.0000
  H   H992      1.0  0.77365  0.44531  0.00887  1.0000
  H   H993      1.0  0.55469  0.32834  0.07554  1.0000
  H   H994      1.0  0.72635  0.17166  0.05779  1.0000
  H   H995      1.0  0.94531  0.27365  0.19113  1.0000
  H   H996      1.0  0.82834  0.05469  0.12446  1.0000
  H   H997      1.0  0.69199  0.21426  0.16564  1.0000
  H   H998      1.0  0.78574  0.47773  0.03230  1.0000
  H   H999      1.0  0.52227  0.30801  0.09897  1.0000
  H   H1000     1.0  0.71426  0.19199  0.03436  1.0000
  H   H1001     1.0  0.97773  0.28574  0.16770  1.0000
  H   H1002     1.0  0.80801  0.02227  0.10103  1.0000
  C   C733      1.0  0.62105  0.23795  0.16182  1.0000
  C   C734      1.0  0.76205  0.38310  0.02849  1.0000
  C   C735      1.0  0.61690  0.37895  0.09515  1.0000
  C   C736      1.0  0.73795  0.12105  0.03818  1.0000
  C   C737      1.0  0.88310  0.26205  0.17151  1.0000
  C   C738      1.0  0.87895  0.11690  0.10485  1.0000
  H   H1003     1.0  0.59871  0.23858  0.15789  1.0000
  H   H1004     1.0  0.76142  0.36012  0.02456  1.0000
  H   H1005     1.0  0.63988  0.40129  0.09123  1.0000
  H   H1006     1.0  0.73858  0.09871  0.04211  1.0000
  H   H1007     1.0  0.86012  0.26142  0.17544  1.0000
  H   H1008     1.0  0.90129  0.13988  0.10877  1.0000
  H   H1009     1.0  0.63460  0.25517  0.18295  1.0000
  H   H1010     1.0  0.74483  0.37944  0.04961  1.0000
  H   H1011     1.0  0.62056  0.36540  0.11628  1.0000
  H   H1012     1.0  0.75517  0.13460  0.01705  1.0000
  H   H1013     1.0  0.87943  0.24483  0.15039  1.0000
  H   H1014     1.0  0.86540  0.12056  0.08372  1.0000
  C   C739      1.0  0.61120  0.20095  0.17604  1.0000
  C   C740      1.0  0.79905  0.41025  0.04271  1.0000
  C   C741      1.0  0.58975  0.38880  0.10937  1.0000
  C   C742      1.0  0.70095  0.11120  0.02396  1.0000
  C   C743      1.0  0.91025  0.29905  0.15729  1.0000
  C   C744      1.0  0.88880  0.08975  0.09063  1.0000
  H   H1015     1.0  0.59974  0.18356  0.15445  1.0000
  H   H1016     1.0  0.81644  0.41619  0.02112  1.0000
  H   H1017     1.0  0.58381  0.40026  0.08778  1.0000
  H   H1018     1.0  0.68356  0.09974  0.04555  1.0000
  H   H1019     1.0  0.91619  0.31644  0.17888  1.0000
  H   H1020     1.0  0.90025  0.08381  0.11222  1.0000
  H   H1021     1.0  0.59394  0.19392  0.19793  1.0000
  H   H1022     1.0  0.80608  0.40002  0.06460  1.0000
  H   H1023     1.0  0.59998  0.40606  0.13127  1.0000
  H   H1024     1.0  0.69392  0.09394  0.00207  1.0000
  H   H1025     1.0  0.90002  0.30608  0.13540  1.0000
  H   H1026     1.0  0.90606  0.09998  0.06873  1.0000
  C   C745      1.0  0.64495  0.20020  0.19020  1.0000
  C   C746      1.0  0.79980  0.44475  0.05687  1.0000
  C   C747      1.0  0.55525  0.35505  0.12353  1.0000
  C   C748      1.0  0.70020  0.14495  0.00980  1.0000
  C   C749      1.0  0.94475  0.29980  0.14313  1.0000
  C   C750      1.0  0.85505  0.05525  0.07647  1.0000
  H   H1027     1.0  0.65726  0.21856  0.01072  1.0000
  H   H1028     1.0  0.78144  0.43871  0.07738  1.0000
  H   H1029     1.0  0.56129  0.34274  0.14405  1.0000
  H   H1030     1.0  0.71856  0.15726  0.18928  1.0000
  H   H1031     1.0  0.93871  0.28144  0.12262  1.0000
  H   H1032     1.0  0.84274  0.06129  0.05595  1.0000
  H   H1033     1.0  0.63794  0.17661  0.00169  1.0000
  H   H1034     1.0  0.82339  0.46133  0.06836  1.0000
  H   H1035     1.0  0.53867  0.36206  0.13502  1.0000
  H   H1036     1.0  0.67661  0.13794  0.19831  1.0000
  H   H1037     1.0  0.96133  0.32339  0.13164  1.0000
  H   H1038     1.0  0.86206  0.03867  0.06498  1.0000
  C   C751      1.0  0.66125  0.17975  0.12900  1.0000
  C   C752      1.0  0.82025  0.48150  0.19567  1.0000
  C   C753      1.0  0.51850  0.33875  0.06233  1.0000
  C   C754      1.0  0.67975  0.16125  0.07100  1.0000
  C   C755      1.0  0.98150  0.32025  0.00433  1.0000
  C   C756      1.0  0.83875  0.01850  0.13767  1.0000
  H   H1039     1.0  0.63879  0.17390  0.11541  1.0000
  H   H1040     1.0  0.82610  0.46490  0.18208  1.0000
  H   H1041     1.0  0.53510  0.36121  0.04874  1.0000
  H   H1042     1.0  0.67390  0.13879  0.08459  1.0000
  H   H1043     1.0  0.96490  0.32610  0.01792  1.0000
  H   H1044     1.0  0.86121  0.03510  0.15126  1.0000
  H   H1045     1.0  0.65740  0.15820  0.14341  1.0000
  H   H1046     1.0  0.84180  0.49920  0.01007  1.0000
  H   H1047     1.0  0.50080  0.34260  0.07674  1.0000
  H   H1048     1.0  0.65820  0.15740  0.05659  1.0000
  H   H1049     1.0  0.99920  0.34180  0.18993  1.0000
  H   H1050     1.0  0.84260  0.00080  0.12326  1.0000
  C   C757      1.0  0.68975  0.18975  0.10000  1.0000
  C   C758      1.0  0.81025  0.00000  0.16667  1.0000
  C   C759      1.0  0.50000  0.31025  0.03333  1.0000
  H   H1051     1.0  0.69441  0.21192  0.08651  1.0000
  H   H1052     1.0  0.78808  0.48249  0.15317  1.0000
  H   H1053     1.0  0.51751  0.30559  0.01984  1.0000
  H   H1054     1.0  0.71192  0.19441  0.11349  1.0000
  H   H1055     1.0  0.98249  0.28808  0.04683  1.0000
  H   H1056     1.0  0.80559  0.01751  0.18016  1.0000
  Zn  Zn67      1.0  0.66347  0.30299  0.30346  1.0000
  Zn  Zn68      1.0  0.69701  0.36048  0.37013  1.0000
  Zn  Zn69      1.0  0.63951  0.33653  0.23680  1.0000
  Zn  Zn70      1.0  0.80299  0.16347  0.29654  1.0000
  Zn  Zn71      1.0  0.86048  0.19701  0.22987  1.0000
  Zn  Zn72      1.0  0.83652  0.13952  0.36320  1.0000
  O   O199      1.0  0.70666  0.32560  0.34008  1.0000
  O   O200      1.0  0.67440  0.38106  0.20675  1.0000
  O   O201      1.0  0.61894  0.29334  0.27341  1.0000
  O   O202      1.0  0.82560  0.20666  0.25992  1.0000
  O   O203      1.0  0.88106  0.17440  0.39325  1.0000
  O   O204      1.0  0.79334  0.11894  0.32659  1.0000
  O   O205      1.0  0.67541  0.31877  0.21196  1.0000
  O   O206      1.0  0.68122  0.35663  0.27863  1.0000
  O   O207      1.0  0.64336  0.32459  0.34529  1.0000
  O   O208      1.0  0.81877  0.17541  0.38804  1.0000
  O   O209      1.0  0.85664  0.18123  0.32137  1.0000
  O   O210      1.0  0.82459  0.14336  0.25471  1.0000
  O   O211      1.0  0.68762  0.29136  0.25912  1.0000
  O   O212      1.0  0.70864  0.39626  0.32579  1.0000
  O   O213      1.0  0.60374  0.31238  0.39245  1.0000
  O   O214      1.0  0.79136  0.18762  0.34088  1.0000
  O   O215      1.0  0.89626  0.20864  0.27421  1.0000
  O   O216      1.0  0.81238  0.10374  0.20755  1.0000
  N   N133      1.0  0.64190  0.25035  0.32576  1.0000
  N   N134      1.0  0.74965  0.39155  0.39243  1.0000
  N   N135      1.0  0.60845  0.35810  0.25909  1.0000
  N   N136      1.0  0.75035  0.14190  0.27424  1.0000
  N   N137      1.0  0.89155  0.24965  0.20757  1.0000
  N   N138      1.0  0.85810  0.10845  0.34091  1.0000
  H   H1057     1.0  0.62800  0.23543  0.30635  1.0000
  H   H1058     1.0  0.76457  0.39257  0.37302  1.0000
  H   H1059     1.0  0.60743  0.37200  0.23968  1.0000
  H   H1060     1.0  0.73543  0.12800  0.29365  1.0000
  H   H1061     1.0  0.89257  0.26457  0.22698  1.0000
  H   H1062     1.0  0.87200  0.10743  0.36032  1.0000
  H   H1063     1.0  0.66059  0.24650  0.32875  1.0000
  H   H1064     1.0  0.75350  0.41409  0.39541  1.0000
  H   H1065     1.0  0.58591  0.33941  0.26208  1.0000
  H   H1066     1.0  0.74650  0.16059  0.27125  1.0000
  H   H1067     1.0  0.91409  0.25350  0.20459  1.0000
  H   H1068     1.0  0.83941  0.08591  0.33792  1.0000
  C   C760      1.0  0.72040  0.30770  0.35760  1.0000
  C   C761      1.0  0.69230  0.41270  0.22427  1.0000
  C   C762      1.0  0.58730  0.27960  0.29093  1.0000
  C   C763      1.0  0.80770  0.22040  0.24240  1.0000
  C   C764      1.0  0.91270  0.19230  0.37573  1.0000
  C   C765      1.0  0.77960  0.08730  0.30907  1.0000
  C   C766      1.0  0.71480  0.29715  0.39770  1.0000
  C   C767      1.0  0.70285  0.41765  0.26437  1.0000
  C   C768      1.0  0.58235  0.28520  0.33103  1.0000
  C   C769      1.0  0.79715  0.21480  0.20230  1.0000
  C   C770      1.0  0.91765  0.20285  0.33563  1.0000
  C   C771      1.0  0.78520  0.08235  0.26897  1.0000
  C   C772      1.0  0.73180  0.27985  0.21314  1.0000
  C   C773      1.0  0.72015  0.45195  0.27981  1.0000
  C   C774      1.0  0.54805  0.26820  0.34647  1.0000
  C   C775      1.0  0.77985  0.23180  0.38686  1.0000
  C   C776      1.0  0.95195  0.22015  0.32019  1.0000
  C   C777      1.0  0.76820  0.04805  0.25353  1.0000
  H   H1069     1.0  0.72806  0.27308  0.24002  1.0000
  H   H1070     1.0  0.72692  0.45498  0.30669  1.0000
  H   H1071     1.0  0.54502  0.27194  0.37336  1.0000
  H   H1072     1.0  0.77308  0.22806  0.35998  1.0000
  H   H1073     1.0  0.95498  0.22692  0.29331  1.0000
  H   H1074     1.0  0.77194  0.04502  0.22664  1.0000
  C   C778      1.0  0.75405  0.27195  0.39124  1.0000
  C   C779      1.0  0.72805  0.48210  0.25791  1.0000
  C   C780      1.0  0.51790  0.24595  0.32457  1.0000
  C   C781      1.0  0.77195  0.25405  0.20876  1.0000
  C   C782      1.0  0.98210  0.22805  0.34209  1.0000
  C   C783      1.0  0.74595  0.01790  0.27543  1.0000
  C   C784      1.0  0.75860  0.28175  0.35170  1.0000
  C   C785      1.0  0.71825  0.47685  0.21837  1.0000
  C   C786      1.0  0.52315  0.24140  0.28503  1.0000
  C   C787      1.0  0.78175  0.25860  0.24830  1.0000
  C   C788      1.0  0.97685  0.21825  0.38163  1.0000
  C   C789      1.0  0.74140  0.02315  0.31497  1.0000
  H   H1075     1.0  0.77322  0.27633  0.33565  1.0000
  H   H1076     1.0  0.72367  0.49688  0.20232  1.0000
  H   H1077     1.0  0.50312  0.22678  0.26899  1.0000
  H   H1078     1.0  0.77633  0.27322  0.26435  1.0000
  H   H1079     1.0  0.99688  0.22366  0.39768  1.0000
  H   H1080     1.0  0.72678  0.00312  0.33101  1.0000
  C   C790      1.0  0.74215  0.29920  0.33538  1.0000
  C   C791      1.0  0.70080  0.44295  0.20205  1.0000
  C   C792      1.0  0.55705  0.25785  0.26871  1.0000
  C   C793      1.0  0.79920  0.24215  0.26462  1.0000
  C   C794      1.0  0.94295  0.20080  0.39795  1.0000
  C   C795      1.0  0.75785  0.05705  0.33129  1.0000
  H   H1081     1.0  0.74582  0.30549  0.30837  1.0000
  H   H1082     1.0  0.69451  0.44033  0.37504  1.0000
  H   H1083     1.0  0.55967  0.25418  0.24170  1.0000
  H   H1084     1.0  0.80549  0.24582  0.29163  1.0000
  H   H1085     1.0  0.94033  0.19451  0.22496  1.0000
  H   H1086     1.0  0.75418  0.05967  0.35830  1.0000
  C   C796      1.0  0.69100  0.30295  0.22468  1.0000
  C   C797      1.0  0.69705  0.38805  0.29135  1.0000
  C   C798      1.0  0.61195  0.30900  0.35801  1.0000
  C   C799      1.0  0.80295  0.19100  0.37532  1.0000
  C   C800      1.0  0.88805  0.19705  0.30865  1.0000
  C   C801      1.0  0.80900  0.11195  0.24199  1.0000
  N   N139      1.0  0.66995  0.20745  0.35580  1.0000
  N   N140      1.0  0.79255  0.46250  0.22247  1.0000
  N   N141      1.0  0.53750  0.33005  0.28913  1.0000
  N   N142      1.0  0.70745  0.16995  0.24420  1.0000
  N   N143      1.0  0.96250  0.29255  0.37753  1.0000
  N   N144      1.0  0.83005  0.03750  0.31087  1.0000
  H   H1087     1.0  0.67166  0.22635  0.34221  1.0000
  H   H1088     1.0  0.77365  0.44531  0.20887  1.0000
  H   H1089     1.0  0.55469  0.32834  0.27554  1.0000
  H   H1090     1.0  0.72635  0.17166  0.25779  1.0000
  H   H1091     1.0  0.94531  0.27365  0.39113  1.0000
  H   H1092     1.0  0.82834  0.05469  0.32446  1.0000
  H   H1093     1.0  0.69199  0.21426  0.36564  1.0000
  H   H1094     1.0  0.78574  0.47773  0.23230  1.0000
  H   H1095     1.0  0.52227  0.30801  0.29897  1.0000
  H   H1096     1.0  0.71426  0.19199  0.23437  1.0000
  H   H1097     1.0  0.97773  0.28574  0.36770  1.0000
  H   H1098     1.0  0.80801  0.02227  0.30103  1.0000
  C   C802      1.0  0.62105  0.23795  0.36182  1.0000
  C   C803      1.0  0.76205  0.38310  0.22849  1.0000
  C   C804      1.0  0.61690  0.37895  0.29515  1.0000
  C   C805      1.0  0.73795  0.12105  0.23818  1.0000
  C   C806      1.0  0.88310  0.26205  0.37151  1.0000
  C   C807      1.0  0.87895  0.11690  0.30485  1.0000
  H   H1099     1.0  0.59871  0.23858  0.35789  1.0000
  H   H1100     1.0  0.76142  0.36012  0.22456  1.0000
  H   H1101     1.0  0.63988  0.40129  0.29123  1.0000
  H   H1102     1.0  0.73858  0.09871  0.24211  1.0000
  H   H1103     1.0  0.86012  0.26142  0.37544  1.0000
  H   H1104     1.0  0.90129  0.13988  0.30877  1.0000
  H   H1105     1.0  0.63460  0.25517  0.38295  1.0000
  H   H1106     1.0  0.74483  0.37944  0.24961  1.0000
  H   H1107     1.0  0.62056  0.36540  0.31628  1.0000
  H   H1108     1.0  0.75517  0.13460  0.21705  1.0000
  H   H1109     1.0  0.87943  0.24483  0.35039  1.0000
  H   H1110     1.0  0.86540  0.12056  0.28372  1.0000
  C   C808      1.0  0.61120  0.20095  0.37604  1.0000
  C   C809      1.0  0.79905  0.41025  0.24271  1.0000
  C   C810      1.0  0.58975  0.38880  0.30937  1.0000
  C   C811      1.0  0.70095  0.11120  0.22396  1.0000
  C   C812      1.0  0.91025  0.29905  0.35729  1.0000
  C   C813      1.0  0.88880  0.08975  0.29063  1.0000
  H   H1111     1.0  0.59974  0.18356  0.35445  1.0000
  H   H1112     1.0  0.81644  0.41619  0.22112  1.0000
  H   H1113     1.0  0.58381  0.40026  0.28778  1.0000
  H   H1114     1.0  0.68356  0.09974  0.24555  1.0000
  H   H1115     1.0  0.91619  0.31644  0.37888  1.0000
  H   H1116     1.0  0.90025  0.08381  0.31222  1.0000
  H   H1117     1.0  0.59394  0.19392  0.39793  1.0000
  H   H1118     1.0  0.80608  0.40002  0.26460  1.0000
  H   H1119     1.0  0.59998  0.40606  0.33127  1.0000
  H   H1120     1.0  0.69392  0.09394  0.20207  1.0000
  H   H1121     1.0  0.90002  0.30608  0.33540  1.0000
  H   H1122     1.0  0.90606  0.09998  0.26873  1.0000
  C   C814      1.0  0.64495  0.20020  0.39020  1.0000
  C   C815      1.0  0.79980  0.44475  0.25687  1.0000
  C   C816      1.0  0.55525  0.35505  0.32353  1.0000
  C   C817      1.0  0.70020  0.14495  0.20980  1.0000
  C   C818      1.0  0.94475  0.29980  0.34313  1.0000
  C   C819      1.0  0.85505  0.05525  0.27647  1.0000
  H   H1123     1.0  0.65726  0.21856  0.21072  1.0000
  H   H1124     1.0  0.78144  0.43871  0.27738  1.0000
  H   H1125     1.0  0.56129  0.34274  0.34405  1.0000
  H   H1126     1.0  0.71856  0.15726  0.38928  1.0000
  H   H1127     1.0  0.93871  0.28144  0.32262  1.0000
  H   H1128     1.0  0.84274  0.06129  0.25595  1.0000
  H   H1129     1.0  0.63794  0.17661  0.20169  1.0000
  H   H1130     1.0  0.82339  0.46133  0.26836  1.0000
  H   H1131     1.0  0.53867  0.36206  0.33502  1.0000
  H   H1132     1.0  0.67661  0.13794  0.39831  1.0000
  H   H1133     1.0  0.96133  0.32339  0.33164  1.0000
  H   H1134     1.0  0.86206  0.03867  0.26498  1.0000
  C   C820      1.0  0.66125  0.17975  0.32900  1.0000
  C   C821      1.0  0.82025  0.48150  0.39567  1.0000
  C   C822      1.0  0.51850  0.33875  0.26233  1.0000
  C   C823      1.0  0.67975  0.16125  0.27100  1.0000
  C   C824      1.0  0.98150  0.32025  0.20433  1.0000
  C   C825      1.0  0.83875  0.01850  0.33767  1.0000
  H   H1135     1.0  0.63879  0.17390  0.31541  1.0000
  H   H1136     1.0  0.82610  0.46490  0.38208  1.0000
  H   H1137     1.0  0.53510  0.36121  0.24874  1.0000
  H   H1138     1.0  0.67390  0.13879  0.28459  1.0000
  H   H1139     1.0  0.96490  0.32610  0.21792  1.0000
  H   H1140     1.0  0.86121  0.03510  0.35126  1.0000
  H   H1141     1.0  0.65740  0.15820  0.34341  1.0000
  H   H1142     1.0  0.84180  0.49920  0.21007  1.0000
  H   H1143     1.0  0.50080  0.34260  0.27674  1.0000
  H   H1144     1.0  0.65820  0.15740  0.25659  1.0000
  H   H1145     1.0  0.99920  0.34180  0.38993  1.0000
  H   H1146     1.0  0.84260  0.00080  0.32326  1.0000
  C   C826      1.0  0.68975  0.18975  0.30000  1.0000
  C   C827      1.0  0.81025  0.00000  0.36667  1.0000
  C   C828      1.0  0.50000  0.31025  0.23333  1.0000
  H   H1147     1.0  0.69441  0.21192  0.28651  1.0000
  H   H1148     1.0  0.78808  0.48249  0.35317  1.0000
  H   H1149     1.0  0.51751  0.30559  0.21984  1.0000
  H   H1150     1.0  0.71192  0.19441  0.31349  1.0000
  H   H1151     1.0  0.98249  0.28808  0.24683  1.0000
  H   H1152     1.0  0.80559  0.01751  0.38016  1.0000
  Zn  Zn73      1.0  0.66347  0.30299  0.50346  1.0000
  Zn  Zn74      1.0  0.69701  0.36048  0.57013  1.0000
  Zn  Zn75      1.0  0.63951  0.33653  0.43680  1.0000
  Zn  Zn76      1.0  0.80299  0.16347  0.49654  1.0000
  Zn  Zn77      1.0  0.86048  0.19701  0.42987  1.0000
  Zn  Zn78      1.0  0.83652  0.13952  0.56320  1.0000
  O   O217      1.0  0.70666  0.32560  0.54008  1.0000
  O   O218      1.0  0.67440  0.38106  0.40675  1.0000
  O   O219      1.0  0.61894  0.29334  0.47341  1.0000
  O   O220      1.0  0.82560  0.20666  0.45992  1.0000
  O   O221      1.0  0.88106  0.17440  0.59325  1.0000
  O   O222      1.0  0.79334  0.11894  0.52659  1.0000
  O   O223      1.0  0.67541  0.31877  0.41196  1.0000
  O   O224      1.0  0.68122  0.35663  0.47863  1.0000
  O   O225      1.0  0.64336  0.32459  0.54529  1.0000
  O   O226      1.0  0.81877  0.17541  0.58804  1.0000
  O   O227      1.0  0.85664  0.18123  0.52137  1.0000
  O   O228      1.0  0.82459  0.14336  0.45471  1.0000
  O   O229      1.0  0.68762  0.29136  0.45912  1.0000
  O   O230      1.0  0.70864  0.39626  0.52579  1.0000
  O   O231      1.0  0.60374  0.31238  0.59245  1.0000
  O   O232      1.0  0.79136  0.18762  0.54088  1.0000
  O   O233      1.0  0.89626  0.20864  0.47421  1.0000
  O   O234      1.0  0.81238  0.10374  0.40755  1.0000
  N   N145      1.0  0.64190  0.25035  0.52576  1.0000
  N   N146      1.0  0.74965  0.39155  0.59243  1.0000
  N   N147      1.0  0.60845  0.35810  0.45909  1.0000
  N   N148      1.0  0.75035  0.14190  0.47424  1.0000
  N   N149      1.0  0.89155  0.24965  0.40757  1.0000
  N   N150      1.0  0.85810  0.10845  0.54091  1.0000
  H   H1153     1.0  0.62800  0.23543  0.50635  1.0000
  H   H1154     1.0  0.76457  0.39257  0.57302  1.0000
  H   H1155     1.0  0.60743  0.37200  0.43968  1.0000
  H   H1156     1.0  0.73543  0.12800  0.49365  1.0000
  H   H1157     1.0  0.89257  0.26457  0.42698  1.0000
  H   H1158     1.0  0.87200  0.10743  0.56032  1.0000
  H   H1159     1.0  0.66059  0.24650  0.52875  1.0000
  H   H1160     1.0  0.75350  0.41409  0.59541  1.0000
  H   H1161     1.0  0.58591  0.33941  0.46208  1.0000
  H   H1162     1.0  0.74650  0.16059  0.47125  1.0000
  H   H1163     1.0  0.91409  0.25350  0.40459  1.0000
  H   H1164     1.0  0.83941  0.08591  0.53792  1.0000
  C   C829      1.0  0.72040  0.30770  0.55760  1.0000
  C   C830      1.0  0.69230  0.41270  0.42427  1.0000
  C   C831      1.0  0.58730  0.27960  0.49093  1.0000
  C   C832      1.0  0.80770  0.22040  0.44240  1.0000
  C   C833      1.0  0.91270  0.19230  0.57573  1.0000
  C   C834      1.0  0.77960  0.08730  0.50907  1.0000
  C   C835      1.0  0.71480  0.29715  0.59770  1.0000
  C   C836      1.0  0.70285  0.41765  0.46437  1.0000
  C   C837      1.0  0.58235  0.28520  0.53103  1.0000
  C   C838      1.0  0.79715  0.21480  0.40230  1.0000
  C   C839      1.0  0.91765  0.20285  0.53563  1.0000
  C   C840      1.0  0.78520  0.08235  0.46897  1.0000
  C   C841      1.0  0.73180  0.27985  0.41314  1.0000
  C   C842      1.0  0.72015  0.45195  0.47981  1.0000
  C   C843      1.0  0.54805  0.26820  0.54647  1.0000
  C   C844      1.0  0.77985  0.23180  0.58686  1.0000
  C   C845      1.0  0.95195  0.22015  0.52019  1.0000
  C   C846      1.0  0.76820  0.04805  0.45353  1.0000
  H   H1165     1.0  0.72806  0.27308  0.44002  1.0000
  H   H1166     1.0  0.72692  0.45498  0.50669  1.0000
  H   H1167     1.0  0.54502  0.27194  0.57336  1.0000
  H   H1168     1.0  0.77308  0.22806  0.55998  1.0000
  H   H1169     1.0  0.95498  0.22692  0.49331  1.0000
  H   H1170     1.0  0.77194  0.04502  0.42664  1.0000
  C   C847      1.0  0.75405  0.27195  0.59124  1.0000
  C   C848      1.0  0.72805  0.48210  0.45791  1.0000
  C   C849      1.0  0.51790  0.24595  0.52457  1.0000
  C   C850      1.0  0.77195  0.25405  0.40876  1.0000
  C   C851      1.0  0.98210  0.22805  0.54209  1.0000
  C   C852      1.0  0.74595  0.01790  0.47543  1.0000
  C   C853      1.0  0.75860  0.28175  0.55170  1.0000
  C   C854      1.0  0.71825  0.47685  0.41837  1.0000
  C   C855      1.0  0.52315  0.24140  0.48503  1.0000
  C   C856      1.0  0.78175  0.25860  0.44830  1.0000
  C   C857      1.0  0.97685  0.21825  0.58163  1.0000
  C   C858      1.0  0.74140  0.02315  0.51497  1.0000
  H   H1171     1.0  0.77322  0.27633  0.53565  1.0000
  H   H1172     1.0  0.72367  0.49688  0.40232  1.0000
  H   H1173     1.0  0.50312  0.22678  0.46899  1.0000
  H   H1174     1.0  0.77633  0.27322  0.46435  1.0000
  H   H1175     1.0  0.99688  0.22366  0.59768  1.0000
  H   H1176     1.0  0.72678  0.00312  0.53101  1.0000
  C   C859      1.0  0.74215  0.29920  0.53538  1.0000
  C   C860      1.0  0.70080  0.44295  0.40205  1.0000
  C   C861      1.0  0.55705  0.25785  0.46871  1.0000
  C   C862      1.0  0.79920  0.24215  0.46462  1.0000
  C   C863      1.0  0.94295  0.20080  0.59795  1.0000
  C   C864      1.0  0.75785  0.05705  0.53129  1.0000
  H   H1177     1.0  0.74582  0.30549  0.50837  1.0000
  H   H1178     1.0  0.69451  0.44033  0.57504  1.0000
  H   H1179     1.0  0.55967  0.25418  0.44170  1.0000
  H   H1180     1.0  0.80549  0.24582  0.49163  1.0000
  H   H1181     1.0  0.94033  0.19451  0.42496  1.0000
  H   H1182     1.0  0.75418  0.05967  0.55830  1.0000
  C   C865      1.0  0.69100  0.30295  0.42468  1.0000
  C   C866      1.0  0.69705  0.38805  0.49135  1.0000
  C   C867      1.0  0.61195  0.30900  0.55801  1.0000
  C   C868      1.0  0.80295  0.19100  0.57532  1.0000
  C   C869      1.0  0.88805  0.19705  0.50865  1.0000
  C   C870      1.0  0.80900  0.11195  0.44199  1.0000
  N   N151      1.0  0.66995  0.20745  0.55580  1.0000
  N   N152      1.0  0.79255  0.46250  0.42247  1.0000
  N   N153      1.0  0.53750  0.33005  0.48913  1.0000
  N   N154      1.0  0.70745  0.16995  0.44420  1.0000
  N   N155      1.0  0.96250  0.29255  0.57753  1.0000
  N   N156      1.0  0.83005  0.03750  0.51087  1.0000
  H   H1183     1.0  0.67166  0.22635  0.54221  1.0000
  H   H1184     1.0  0.77365  0.44531  0.40887  1.0000
  H   H1185     1.0  0.55469  0.32834  0.47554  1.0000
  H   H1186     1.0  0.72635  0.17166  0.45779  1.0000
  H   H1187     1.0  0.94531  0.27365  0.59113  1.0000
  H   H1188     1.0  0.82834  0.05469  0.52446  1.0000
  H   H1189     1.0  0.69199  0.21426  0.56563  1.0000
  H   H1190     1.0  0.78574  0.47773  0.43230  1.0000
  H   H1191     1.0  0.52227  0.30801  0.49897  1.0000
  H   H1192     1.0  0.71426  0.19199  0.43437  1.0000
  H   H1193     1.0  0.97773  0.28574  0.56770  1.0000
  H   H1194     1.0  0.80801  0.02227  0.50103  1.0000
  C   C871      1.0  0.62105  0.23795  0.56182  1.0000
  C   C872      1.0  0.76205  0.38310  0.42849  1.0000
  C   C873      1.0  0.61690  0.37895  0.49515  1.0000
  C   C874      1.0  0.73795  0.12105  0.43818  1.0000
  C   C875      1.0  0.88310  0.26205  0.57151  1.0000
  C   C876      1.0  0.87895  0.11690  0.50485  1.0000
  H   H1195     1.0  0.59871  0.23858  0.55789  1.0000
  H   H1196     1.0  0.76142  0.36012  0.42456  1.0000
  H   H1197     1.0  0.63988  0.40129  0.49123  1.0000
  H   H1198     1.0  0.73858  0.09871  0.44211  1.0000
  H   H1199     1.0  0.86012  0.26142  0.57544  1.0000
  H   H1200     1.0  0.90129  0.13988  0.50877  1.0000
  H   H1201     1.0  0.63460  0.25517  0.58295  1.0000
  H   H1202     1.0  0.74483  0.37944  0.44961  1.0000
  H   H1203     1.0  0.62056  0.36540  0.51628  1.0000
  H   H1204     1.0  0.75517  0.13460  0.41705  1.0000
  H   H1205     1.0  0.87943  0.24483  0.55039  1.0000
  H   H1206     1.0  0.86540  0.12056  0.48372  1.0000
  C   C877      1.0  0.61120  0.20095  0.57604  1.0000
  C   C878      1.0  0.79905  0.41025  0.44271  1.0000
  C   C879      1.0  0.58975  0.38880  0.50937  1.0000
  C   C880      1.0  0.70095  0.11120  0.42396  1.0000
  C   C881      1.0  0.91025  0.29905  0.55729  1.0000
  C   C882      1.0  0.88880  0.08975  0.49063  1.0000
  H   H1207     1.0  0.59974  0.18356  0.55445  1.0000
  H   H1208     1.0  0.81644  0.41619  0.42112  1.0000
  H   H1209     1.0  0.58381  0.40026  0.48778  1.0000
  H   H1210     1.0  0.68356  0.09974  0.44555  1.0000
  H   H1211     1.0  0.91619  0.31644  0.57888  1.0000
  H   H1212     1.0  0.90025  0.08381  0.51222  1.0000
  H   H1213     1.0  0.59394  0.19392  0.59793  1.0000
  H   H1214     1.0  0.80608  0.40002  0.46460  1.0000
  H   H1215     1.0  0.59998  0.40606  0.53127  1.0000
  H   H1216     1.0  0.69392  0.09394  0.40207  1.0000
  H   H1217     1.0  0.90002  0.30608  0.53540  1.0000
  H   H1218     1.0  0.90606  0.09998  0.46873  1.0000
  C   C883      1.0  0.64495  0.20020  0.59020  1.0000
  C   C884      1.0  0.79980  0.44475  0.45687  1.0000
  C   C885      1.0  0.55525  0.35505  0.52353  1.0000
  C   C886      1.0  0.70020  0.14495  0.40980  1.0000
  C   C887      1.0  0.94475  0.29980  0.54313  1.0000
  C   C888      1.0  0.85505  0.05525  0.47647  1.0000
  H   H1219     1.0  0.65726  0.21856  0.41072  1.0000
  H   H1220     1.0  0.78144  0.43871  0.47738  1.0000
  H   H1221     1.0  0.56129  0.34274  0.54405  1.0000
  H   H1222     1.0  0.71856  0.15726  0.58928  1.0000
  H   H1223     1.0  0.93871  0.28144  0.52262  1.0000
  H   H1224     1.0  0.84274  0.06129  0.45595  1.0000
  H   H1225     1.0  0.63794  0.17661  0.40169  1.0000
  H   H1226     1.0  0.82339  0.46133  0.46836  1.0000
  H   H1227     1.0  0.53867  0.36206  0.53502  1.0000
  H   H1228     1.0  0.67661  0.13794  0.59831  1.0000
  H   H1229     1.0  0.96133  0.32339  0.53164  1.0000
  H   H1230     1.0  0.86206  0.03867  0.46498  1.0000
  C   C889      1.0  0.66125  0.17975  0.52900  1.0000
  C   C890      1.0  0.82025  0.48150  0.59567  1.0000
  C   C891      1.0  0.51850  0.33875  0.46233  1.0000
  C   C892      1.0  0.67975  0.16125  0.47100  1.0000
  C   C893      1.0  0.98150  0.32025  0.40433  1.0000
  C   C894      1.0  0.83875  0.01850  0.53767  1.0000
  H   H1231     1.0  0.63879  0.17390  0.51541  1.0000
  H   H1232     1.0  0.82610  0.46490  0.58208  1.0000
  H   H1233     1.0  0.53510  0.36121  0.44874  1.0000
  H   H1234     1.0  0.67390  0.13879  0.48459  1.0000
  H   H1235     1.0  0.96490  0.32610  0.41792  1.0000
  H   H1236     1.0  0.86121  0.03510  0.55126  1.0000
  H   H1237     1.0  0.65740  0.15820  0.54341  1.0000
  H   H1238     1.0  0.84180  0.49920  0.41007  1.0000
  H   H1239     1.0  0.50080  0.34260  0.47674  1.0000
  H   H1240     1.0  0.65820  0.15740  0.45659  1.0000
  H   H1241     1.0  0.99920  0.34180  0.58993  1.0000
  H   H1242     1.0  0.84260  0.00080  0.52326  1.0000
  C   C895      1.0  0.68975  0.18975  0.50000  1.0000
  C   C896      1.0  0.81025  0.00000  0.56667  1.0000
  C   C897      1.0  0.50000  0.31025  0.43333  1.0000
  H   H1243     1.0  0.69441  0.21192  0.48651  1.0000
  H   H1244     1.0  0.78808  0.48249  0.55317  1.0000
  H   H1245     1.0  0.51751  0.30559  0.41984  1.0000
  H   H1246     1.0  0.71192  0.19441  0.51349  1.0000
  H   H1247     1.0  0.98249  0.28808  0.44683  1.0000
  H   H1248     1.0  0.80559  0.01751  0.58016  1.0000
  Zn  Zn79      1.0  0.66347  0.30299  0.70346  1.0000
  Zn  Zn80      1.0  0.69701  0.36048  0.77013  1.0000
  Zn  Zn81      1.0  0.63951  0.33653  0.63680  1.0000
  Zn  Zn82      1.0  0.80299  0.16347  0.69654  1.0000
  Zn  Zn83      1.0  0.86048  0.19701  0.62987  1.0000
  Zn  Zn84      1.0  0.83652  0.13952  0.76320  1.0000
  O   O235      1.0  0.70666  0.32560  0.74008  1.0000
  O   O236      1.0  0.67440  0.38106  0.60675  1.0000
  O   O237      1.0  0.61894  0.29334  0.67341  1.0000
  O   O238      1.0  0.82560  0.20666  0.65992  1.0000
  O   O239      1.0  0.88106  0.17440  0.79325  1.0000
  O   O240      1.0  0.79334  0.11894  0.72659  1.0000
  O   O241      1.0  0.67541  0.31877  0.61196  1.0000
  O   O242      1.0  0.68122  0.35663  0.67863  1.0000
  O   O243      1.0  0.64336  0.32459  0.74529  1.0000
  O   O244      1.0  0.81877  0.17541  0.78804  1.0000
  O   O245      1.0  0.85664  0.18123  0.72137  1.0000
  O   O246      1.0  0.82459  0.14336  0.65471  1.0000
  O   O247      1.0  0.68762  0.29136  0.65912  1.0000
  O   O248      1.0  0.70864  0.39626  0.72579  1.0000
  O   O249      1.0  0.60374  0.31238  0.79245  1.0000
  O   O250      1.0  0.79136  0.18762  0.74088  1.0000
  O   O251      1.0  0.89626  0.20864  0.67421  1.0000
  O   O252      1.0  0.81238  0.10374  0.60755  1.0000
  N   N157      1.0  0.64190  0.25035  0.72576  1.0000
  N   N158      1.0  0.74965  0.39155  0.79243  1.0000
  N   N159      1.0  0.60845  0.35810  0.65909  1.0000
  N   N160      1.0  0.75035  0.14190  0.67424  1.0000
  N   N161      1.0  0.89155  0.24965  0.60757  1.0000
  N   N162      1.0  0.85810  0.10845  0.74091  1.0000
  H   H1249     1.0  0.62800  0.23543  0.70635  1.0000
  H   H1250     1.0  0.76457  0.39257  0.77302  1.0000
  H   H1251     1.0  0.60743  0.37200  0.63968  1.0000
  H   H1252     1.0  0.73543  0.12800  0.69365  1.0000
  H   H1253     1.0  0.89257  0.26457  0.62698  1.0000
  H   H1254     1.0  0.87200  0.10743  0.76032  1.0000
  H   H1255     1.0  0.66059  0.24650  0.72875  1.0000
  H   H1256     1.0  0.75350  0.41409  0.79541  1.0000
  H   H1257     1.0  0.58591  0.33941  0.66208  1.0000
  H   H1258     1.0  0.74650  0.16059  0.67125  1.0000
  H   H1259     1.0  0.91409  0.25350  0.60459  1.0000
  H   H1260     1.0  0.83941  0.08591  0.73792  1.0000
  C   C898      1.0  0.72040  0.30770  0.75760  1.0000
  C   C899      1.0  0.69230  0.41270  0.62427  1.0000
  C   C900      1.0  0.58730  0.27960  0.69093  1.0000
  C   C901      1.0  0.80770  0.22040  0.64240  1.0000
  C   C902      1.0  0.91270  0.19230  0.77573  1.0000
  C   C903      1.0  0.77960  0.08730  0.70907  1.0000
  C   C904      1.0  0.71480  0.29715  0.79770  1.0000
  C   C905      1.0  0.70285  0.41765  0.66437  1.0000
  C   C906      1.0  0.58235  0.28520  0.73103  1.0000
  C   C907      1.0  0.79715  0.21480  0.60230  1.0000
  C   C908      1.0  0.91765  0.20285  0.73563  1.0000
  C   C909      1.0  0.78520  0.08235  0.66897  1.0000
  C   C910      1.0  0.73180  0.27985  0.61314  1.0000
  C   C911      1.0  0.72015  0.45195  0.67981  1.0000
  C   C912      1.0  0.54805  0.26820  0.74647  1.0000
  C   C913      1.0  0.77985  0.23180  0.78686  1.0000
  C   C914      1.0  0.95195  0.22015  0.72019  1.0000
  C   C915      1.0  0.76820  0.04805  0.65353  1.0000
  H   H1261     1.0  0.72806  0.27308  0.64002  1.0000
  H   H1262     1.0  0.72692  0.45498  0.70669  1.0000
  H   H1263     1.0  0.54502  0.27194  0.77336  1.0000
  H   H1264     1.0  0.77308  0.22806  0.75998  1.0000
  H   H1265     1.0  0.95498  0.22692  0.69331  1.0000
  H   H1266     1.0  0.77194  0.04502  0.62664  1.0000
  C   C916      1.0  0.75405  0.27195  0.79124  1.0000
  C   C917      1.0  0.72805  0.48210  0.65791  1.0000
  C   C918      1.0  0.51790  0.24595  0.72457  1.0000
  C   C919      1.0  0.77195  0.25405  0.60876  1.0000
  C   C920      1.0  0.98210  0.22805  0.74209  1.0000
  C   C921      1.0  0.74595  0.01790  0.67543  1.0000
  C   C922      1.0  0.75860  0.28175  0.75170  1.0000
  C   C923      1.0  0.71825  0.47685  0.61837  1.0000
  C   C924      1.0  0.52315  0.24140  0.68503  1.0000
  C   C925      1.0  0.78175  0.25860  0.64830  1.0000
  C   C926      1.0  0.97685  0.21825  0.78163  1.0000
  C   C927      1.0  0.74140  0.02315  0.71497  1.0000
  H   H1267     1.0  0.77322  0.27633  0.73565  1.0000
  H   H1268     1.0  0.72367  0.49688  0.60232  1.0000
  H   H1269     1.0  0.50312  0.22678  0.66899  1.0000
  H   H1270     1.0  0.77633  0.27322  0.66435  1.0000
  H   H1271     1.0  0.99688  0.22366  0.79768  1.0000
  H   H1272     1.0  0.72678  0.00312  0.73101  1.0000
  C   C928      1.0  0.74215  0.29920  0.73538  1.0000
  C   C929      1.0  0.70080  0.44295  0.60205  1.0000
  C   C930      1.0  0.55705  0.25785  0.66871  1.0000
  C   C931      1.0  0.79920  0.24215  0.66462  1.0000
  C   C932      1.0  0.94295  0.20080  0.79795  1.0000
  C   C933      1.0  0.75785  0.05705  0.73129  1.0000
  H   H1273     1.0  0.74582  0.30549  0.70837  1.0000
  H   H1274     1.0  0.69451  0.44033  0.77504  1.0000
  H   H1275     1.0  0.55967  0.25418  0.64170  1.0000
  H   H1276     1.0  0.80549  0.24582  0.69163  1.0000
  H   H1277     1.0  0.94033  0.19451  0.62496  1.0000
  H   H1278     1.0  0.75418  0.05967  0.75830  1.0000
  C   C934      1.0  0.69100  0.30295  0.62468  1.0000
  C   C935      1.0  0.69705  0.38805  0.69135  1.0000
  C   C936      1.0  0.61195  0.30900  0.75801  1.0000
  C   C937      1.0  0.80295  0.19100  0.77532  1.0000
  C   C938      1.0  0.88805  0.19705  0.70865  1.0000
  C   C939      1.0  0.80900  0.11195  0.64199  1.0000
  N   N163      1.0  0.66995  0.20745  0.75580  1.0000
  N   N164      1.0  0.79255  0.46250  0.62247  1.0000
  N   N165      1.0  0.53750  0.33005  0.68913  1.0000
  N   N166      1.0  0.70745  0.16995  0.64420  1.0000
  N   N167      1.0  0.96250  0.29255  0.77753  1.0000
  N   N168      1.0  0.83005  0.03750  0.71087  1.0000
  H   H1279     1.0  0.67166  0.22635  0.74221  1.0000
  H   H1280     1.0  0.77365  0.44531  0.60887  1.0000
  H   H1281     1.0  0.55469  0.32834  0.67554  1.0000
  H   H1282     1.0  0.72635  0.17166  0.65779  1.0000
  H   H1283     1.0  0.94531  0.27365  0.79113  1.0000
  H   H1284     1.0  0.82834  0.05469  0.72446  1.0000
  H   H1285     1.0  0.69199  0.21426  0.76564  1.0000
  H   H1286     1.0  0.78574  0.47773  0.63230  1.0000
  H   H1287     1.0  0.52227  0.30801  0.69897  1.0000
  H   H1288     1.0  0.71426  0.19199  0.63437  1.0000
  H   H1289     1.0  0.97773  0.28574  0.76770  1.0000
  H   H1290     1.0  0.80801  0.02227  0.70103  1.0000
  C   C940      1.0  0.62105  0.23795  0.76182  1.0000
  C   C941      1.0  0.76205  0.38310  0.62849  1.0000
  C   C942      1.0  0.61690  0.37895  0.69515  1.0000
  C   C943      1.0  0.73795  0.12105  0.63818  1.0000
  C   C944      1.0  0.88310  0.26205  0.77151  1.0000
  C   C945      1.0  0.87895  0.11690  0.70485  1.0000
  H   H1291     1.0  0.59871  0.23858  0.75789  1.0000
  H   H1292     1.0  0.76142  0.36012  0.62456  1.0000
  H   H1293     1.0  0.63988  0.40129  0.69123  1.0000
  H   H1294     1.0  0.73858  0.09871  0.64211  1.0000
  H   H1295     1.0  0.86012  0.26142  0.77544  1.0000
  H   H1296     1.0  0.90129  0.13988  0.70877  1.0000
  H   H1297     1.0  0.63460  0.25517  0.78295  1.0000
  H   H1298     1.0  0.74483  0.37944  0.64961  1.0000
  H   H1299     1.0  0.62056  0.36540  0.71628  1.0000
  H   H1300     1.0  0.75517  0.13460  0.61705  1.0000
  H   H1301     1.0  0.87943  0.24483  0.75039  1.0000
  H   H1302     1.0  0.86540  0.12056  0.68372  1.0000
  C   C946      1.0  0.61120  0.20095  0.77604  1.0000
  C   C947      1.0  0.79905  0.41025  0.64271  1.0000
  C   C948      1.0  0.58975  0.38880  0.70937  1.0000
  C   C949      1.0  0.70095  0.11120  0.62396  1.0000
  C   C950      1.0  0.91025  0.29905  0.75729  1.0000
  C   C951      1.0  0.88880  0.08975  0.69063  1.0000
  H   H1303     1.0  0.59974  0.18356  0.75445  1.0000
  H   H1304     1.0  0.81644  0.41619  0.62112  1.0000
  H   H1305     1.0  0.58381  0.40026  0.68778  1.0000
  H   H1306     1.0  0.68356  0.09974  0.64555  1.0000
  H   H1307     1.0  0.91619  0.31644  0.77888  1.0000
  H   H1308     1.0  0.90025  0.08381  0.71222  1.0000
  H   H1309     1.0  0.59394  0.19392  0.79793  1.0000
  H   H1310     1.0  0.80608  0.40002  0.66460  1.0000
  H   H1311     1.0  0.59998  0.40606  0.73127  1.0000
  H   H1312     1.0  0.69392  0.09394  0.60207  1.0000
  H   H1313     1.0  0.90002  0.30608  0.73540  1.0000
  H   H1314     1.0  0.90606  0.09998  0.66873  1.0000
  C   C952      1.0  0.64495  0.20020  0.79020  1.0000
  C   C953      1.0  0.79980  0.44475  0.65687  1.0000
  C   C954      1.0  0.55525  0.35505  0.72353  1.0000
  C   C955      1.0  0.70020  0.14495  0.60980  1.0000
  C   C956      1.0  0.94475  0.29980  0.74313  1.0000
  C   C957      1.0  0.85505  0.05525  0.67647  1.0000
  H   H1315     1.0  0.65726  0.21856  0.61072  1.0000
  H   H1316     1.0  0.78144  0.43871  0.67738  1.0000
  H   H1317     1.0  0.56129  0.34274  0.74405  1.0000
  H   H1318     1.0  0.71856  0.15726  0.78928  1.0000
  H   H1319     1.0  0.93871  0.28144  0.72262  1.0000
  H   H1320     1.0  0.84274  0.06129  0.65595  1.0000
  H   H1321     1.0  0.63794  0.17661  0.60169  1.0000
  H   H1322     1.0  0.82339  0.46133  0.66836  1.0000
  H   H1323     1.0  0.53867  0.36206  0.73502  1.0000
  H   H1324     1.0  0.67661  0.13794  0.79831  1.0000
  H   H1325     1.0  0.96133  0.32339  0.73164  1.0000
  H   H1326     1.0  0.86206  0.03867  0.66498  1.0000
  C   C958      1.0  0.66125  0.17975  0.72900  1.0000
  C   C959      1.0  0.82025  0.48150  0.79567  1.0000
  C   C960      1.0  0.51850  0.33875  0.66233  1.0000
  C   C961      1.0  0.67975  0.16125  0.67100  1.0000
  C   C962      1.0  0.98150  0.32025  0.60433  1.0000
  C   C963      1.0  0.83875  0.01850  0.73767  1.0000
  H   H1327     1.0  0.63879  0.17390  0.71541  1.0000
  H   H1328     1.0  0.82610  0.46490  0.78208  1.0000
  H   H1329     1.0  0.53510  0.36121  0.64874  1.0000
  H   H1330     1.0  0.67390  0.13879  0.68459  1.0000
  H   H1331     1.0  0.96490  0.32610  0.61792  1.0000
  H   H1332     1.0  0.86121  0.03510  0.75126  1.0000
  H   H1333     1.0  0.65740  0.15820  0.74341  1.0000
  H   H1334     1.0  0.84180  0.49920  0.61007  1.0000
  H   H1335     1.0  0.50080  0.34260  0.67674  1.0000
  H   H1336     1.0  0.65820  0.15740  0.65659  1.0000
  H   H1337     1.0  0.99920  0.34180  0.78993  1.0000
  H   H1338     1.0  0.84260  0.00080  0.72326  1.0000
  C   C964      1.0  0.68975  0.18975  0.70000  1.0000
  C   C965      1.0  0.81025  0.00000  0.76667  1.0000
  C   C966      1.0  0.50000  0.31025  0.63333  1.0000
  H   H1339     1.0  0.69441  0.21192  0.68651  1.0000
  H   H1340     1.0  0.78808  0.48249  0.75317  1.0000
  H   H1341     1.0  0.51751  0.30559  0.61984  1.0000
  H   H1342     1.0  0.71192  0.19441  0.71349  1.0000
  H   H1343     1.0  0.98249  0.28808  0.64683  1.0000
  H   H1344     1.0  0.80559  0.01751  0.78016  1.0000
  Zn  Zn85      1.0  0.66347  0.30299  0.90346  1.0000
  Zn  Zn86      1.0  0.69701  0.36048  0.97013  1.0000
  Zn  Zn87      1.0  0.63951  0.33653  0.83680  1.0000
  Zn  Zn88      1.0  0.80299  0.16347  0.89654  1.0000
  Zn  Zn89      1.0  0.86048  0.19701  0.82987  1.0000
  Zn  Zn90      1.0  0.83652  0.13952  0.96320  1.0000
  O   O253      1.0  0.70666  0.32560  0.94008  1.0000
  O   O254      1.0  0.67440  0.38106  0.80675  1.0000
  O   O255      1.0  0.61894  0.29334  0.87341  1.0000
  O   O256      1.0  0.82560  0.20666  0.85992  1.0000
  O   O257      1.0  0.88106  0.17440  0.99325  1.0000
  O   O258      1.0  0.79334  0.11894  0.92659  1.0000
  O   O259      1.0  0.67541  0.31877  0.81196  1.0000
  O   O260      1.0  0.68122  0.35663  0.87863  1.0000
  O   O261      1.0  0.64336  0.32459  0.94529  1.0000
  O   O262      1.0  0.81877  0.17541  0.98804  1.0000
  O   O263      1.0  0.85664  0.18123  0.92137  1.0000
  O   O264      1.0  0.82459  0.14336  0.85471  1.0000
  O   O265      1.0  0.68762  0.29136  0.85912  1.0000
  O   O266      1.0  0.70864  0.39626  0.92579  1.0000
  O   O267      1.0  0.60374  0.31238  0.99245  1.0000
  O   O268      1.0  0.79136  0.18762  0.94088  1.0000
  O   O269      1.0  0.89626  0.20864  0.87421  1.0000
  O   O270      1.0  0.81238  0.10374  0.80755  1.0000
  N   N169      1.0  0.64190  0.25035  0.92576  1.0000
  N   N170      1.0  0.74965  0.39155  0.99243  1.0000
  N   N171      1.0  0.60845  0.35810  0.85909  1.0000
  N   N172      1.0  0.75035  0.14190  0.87424  1.0000
  N   N173      1.0  0.89155  0.24965  0.80757  1.0000
  N   N174      1.0  0.85810  0.10845  0.94091  1.0000
  H   H1345     1.0  0.62800  0.23543  0.90635  1.0000
  H   H1346     1.0  0.76457  0.39257  0.97302  1.0000
  H   H1347     1.0  0.60743  0.37200  0.83968  1.0000
  H   H1348     1.0  0.73543  0.12800  0.89365  1.0000
  H   H1349     1.0  0.89257  0.26457  0.82698  1.0000
  H   H1350     1.0  0.87200  0.10743  0.96032  1.0000
  H   H1351     1.0  0.66059  0.24650  0.92875  1.0000
  H   H1352     1.0  0.75350  0.41409  0.99541  1.0000
  H   H1353     1.0  0.58591  0.33941  0.86208  1.0000
  H   H1354     1.0  0.74650  0.16059  0.87125  1.0000
  H   H1355     1.0  0.91409  0.25350  0.80459  1.0000
  H   H1356     1.0  0.83941  0.08591  0.93792  1.0000
  C   C967      1.0  0.72040  0.30770  0.95760  1.0000
  C   C968      1.0  0.69230  0.41270  0.82427  1.0000
  C   C969      1.0  0.58730  0.27960  0.89093  1.0000
  C   C970      1.0  0.80770  0.22040  0.84240  1.0000
  C   C971      1.0  0.91270  0.19230  0.97573  1.0000
  C   C972      1.0  0.77960  0.08730  0.90907  1.0000
  C   C973      1.0  0.71480  0.29715  0.99770  1.0000
  C   C974      1.0  0.70285  0.41765  0.86437  1.0000
  C   C975      1.0  0.58235  0.28520  0.93103  1.0000
  C   C976      1.0  0.79715  0.21480  0.80230  1.0000
  C   C977      1.0  0.91765  0.20285  0.93563  1.0000
  C   C978      1.0  0.78520  0.08235  0.86897  1.0000
  C   C979      1.0  0.73180  0.27985  0.81314  1.0000
  C   C980      1.0  0.72015  0.45195  0.87981  1.0000
  C   C981      1.0  0.54805  0.26820  0.94647  1.0000
  C   C982      1.0  0.77985  0.23180  0.98686  1.0000
  C   C983      1.0  0.95195  0.22015  0.92019  1.0000
  C   C984      1.0  0.76820  0.04805  0.85353  1.0000
  H   H1357     1.0  0.72806  0.27308  0.84002  1.0000
  H   H1358     1.0  0.72692  0.45498  0.90669  1.0000
  H   H1359     1.0  0.54502  0.27194  0.97336  1.0000
  H   H1360     1.0  0.77308  0.22806  0.95998  1.0000
  H   H1361     1.0  0.95498  0.22692  0.89331  1.0000
  H   H1362     1.0  0.77194  0.04502  0.82664  1.0000
  C   C985      1.0  0.75405  0.27195  0.99124  1.0000
  C   C986      1.0  0.72805  0.48210  0.85791  1.0000
  C   C987      1.0  0.51790  0.24595  0.92457  1.0000
  C   C988      1.0  0.77195  0.25405  0.80876  1.0000
  C   C989      1.0  0.98210  0.22805  0.94209  1.0000
  C   C990      1.0  0.74595  0.01790  0.87543  1.0000
  C   C991      1.0  0.75860  0.28175  0.95170  1.0000
  C   C992      1.0  0.71825  0.47685  0.81837  1.0000
  C   C993      1.0  0.52315  0.24140  0.88503  1.0000
  C   C994      1.0  0.78175  0.25860  0.84830  1.0000
  C   C995      1.0  0.97685  0.21825  0.98163  1.0000
  C   C996      1.0  0.74140  0.02315  0.91497  1.0000
  H   H1363     1.0  0.77322  0.27633  0.93565  1.0000
  H   H1364     1.0  0.72367  0.49688  0.80232  1.0000
  H   H1365     1.0  0.50312  0.22678  0.86899  1.0000
  H   H1366     1.0  0.77633  0.27322  0.86435  1.0000
  H   H1367     1.0  0.99688  0.22366  0.99768  1.0000
  H   H1368     1.0  0.72678  0.00312  0.93101  1.0000
  C   C997      1.0  0.74215  0.29920  0.93538  1.0000
  C   C998      1.0  0.70080  0.44295  0.80205  1.0000
  C   C999      1.0  0.55705  0.25785  0.86871  1.0000
  C   C1000     1.0  0.79920  0.24215  0.86462  1.0000
  C   C1001     1.0  0.94295  0.20080  0.99795  1.0000
  C   C1002     1.0  0.75785  0.05705  0.93129  1.0000
  H   H1369     1.0  0.74582  0.30549  0.90837  1.0000
  H   H1370     1.0  0.69451  0.44033  0.97504  1.0000
  H   H1371     1.0  0.55967  0.25418  0.84170  1.0000
  H   H1372     1.0  0.80549  0.24582  0.89163  1.0000
  H   H1373     1.0  0.94033  0.19451  0.82496  1.0000
  H   H1374     1.0  0.75418  0.05967  0.95830  1.0000
  C   C1003     1.0  0.69100  0.30295  0.82468  1.0000
  C   C1004     1.0  0.69705  0.38805  0.89135  1.0000
  C   C1005     1.0  0.61195  0.30900  0.95801  1.0000
  C   C1006     1.0  0.80295  0.19100  0.97532  1.0000
  C   C1007     1.0  0.88805  0.19705  0.90865  1.0000
  C   C1008     1.0  0.80900  0.11195  0.84199  1.0000
  N   N175      1.0  0.66995  0.20745  0.95580  1.0000
  N   N176      1.0  0.79255  0.46250  0.82247  1.0000
  N   N177      1.0  0.53750  0.33005  0.88913  1.0000
  N   N178      1.0  0.70745  0.16995  0.84420  1.0000
  N   N179      1.0  0.96250  0.29255  0.97753  1.0000
  N   N180      1.0  0.83005  0.03750  0.91087  1.0000
  H   H1375     1.0  0.67166  0.22635  0.94221  1.0000
  H   H1376     1.0  0.77365  0.44531  0.80887  1.0000
  H   H1377     1.0  0.55469  0.32834  0.87554  1.0000
  H   H1378     1.0  0.72635  0.17166  0.85779  1.0000
  H   H1379     1.0  0.94531  0.27365  0.99113  1.0000
  H   H1380     1.0  0.82834  0.05469  0.92446  1.0000
  H   H1381     1.0  0.69199  0.21426  0.96564  1.0000
  H   H1382     1.0  0.78574  0.47773  0.83230  1.0000
  H   H1383     1.0  0.52227  0.30801  0.89897  1.0000
  H   H1384     1.0  0.71426  0.19199  0.83437  1.0000
  H   H1385     1.0  0.97773  0.28574  0.96770  1.0000
  H   H1386     1.0  0.80801  0.02227  0.90103  1.0000
  C   C1009     1.0  0.62105  0.23795  0.96182  1.0000
  C   C1010     1.0  0.76205  0.38310  0.82849  1.0000
  C   C1011     1.0  0.61690  0.37895  0.89515  1.0000
  C   C1012     1.0  0.73795  0.12105  0.83818  1.0000
  C   C1013     1.0  0.88310  0.26205  0.97151  1.0000
  C   C1014     1.0  0.87895  0.11690  0.90485  1.0000
  H   H1387     1.0  0.59871  0.23858  0.95789  1.0000
  H   H1388     1.0  0.76142  0.36012  0.82456  1.0000
  H   H1389     1.0  0.63988  0.40129  0.89123  1.0000
  H   H1390     1.0  0.73858  0.09871  0.84211  1.0000
  H   H1391     1.0  0.86012  0.26142  0.97544  1.0000
  H   H1392     1.0  0.90129  0.13988  0.90877  1.0000
  H   H1393     1.0  0.63460  0.25517  0.98295  1.0000
  H   H1394     1.0  0.74483  0.37944  0.84961  1.0000
  H   H1395     1.0  0.62056  0.36540  0.91628  1.0000
  H   H1396     1.0  0.75517  0.13460  0.81705  1.0000
  H   H1397     1.0  0.87943  0.24483  0.95039  1.0000
  H   H1398     1.0  0.86540  0.12056  0.88372  1.0000
  C   C1015     1.0  0.61120  0.20095  0.97604  1.0000
  C   C1016     1.0  0.79905  0.41025  0.84271  1.0000
  C   C1017     1.0  0.58975  0.38880  0.90937  1.0000
  C   C1018     1.0  0.70095  0.11120  0.82396  1.0000
  C   C1019     1.0  0.91025  0.29905  0.95729  1.0000
  C   C1020     1.0  0.88880  0.08975  0.89063  1.0000
  H   H1399     1.0  0.59974  0.18356  0.95445  1.0000
  H   H1400     1.0  0.81644  0.41619  0.82112  1.0000
  H   H1401     1.0  0.58381  0.40026  0.88778  1.0000
  H   H1402     1.0  0.68356  0.09974  0.84555  1.0000
  H   H1403     1.0  0.91619  0.31644  0.97888  1.0000
  H   H1404     1.0  0.90025  0.08381  0.91222  1.0000
  H   H1405     1.0  0.59394  0.19392  0.99793  1.0000
  H   H1406     1.0  0.80608  0.40002  0.86460  1.0000
  H   H1407     1.0  0.59998  0.40606  0.93127  1.0000
  H   H1408     1.0  0.69392  0.09394  0.80207  1.0000
  H   H1409     1.0  0.90002  0.30608  0.93540  1.0000
  H   H1410     1.0  0.90606  0.09998  0.86873  1.0000
  C   C1021     1.0  0.64495  0.20020  0.99020  1.0000
  C   C1022     1.0  0.79980  0.44475  0.85687  1.0000
  C   C1023     1.0  0.55525  0.35505  0.92353  1.0000
  C   C1024     1.0  0.70020  0.14495  0.80980  1.0000
  C   C1025     1.0  0.94475  0.29980  0.94313  1.0000
  C   C1026     1.0  0.85505  0.05525  0.87647  1.0000
  H   H1411     1.0  0.65726  0.21856  0.81072  1.0000
  H   H1412     1.0  0.78144  0.43871  0.87738  1.0000
  H   H1413     1.0  0.56129  0.34274  0.94405  1.0000
  H   H1414     1.0  0.71856  0.15726  0.98928  1.0000
  H   H1415     1.0  0.93871  0.28144  0.92262  1.0000
  H   H1416     1.0  0.84274  0.06129  0.85595  1.0000
  H   H1417     1.0  0.63794  0.17661  0.80169  1.0000
  H   H1418     1.0  0.82339  0.46133  0.86836  1.0000
  H   H1419     1.0  0.53867  0.36206  0.93502  1.0000
  H   H1420     1.0  0.67661  0.13794  0.99831  1.0000
  H   H1421     1.0  0.96133  0.32339  0.93164  1.0000
  H   H1422     1.0  0.86206  0.03867  0.86498  1.0000
  C   C1027     1.0  0.66125  0.17975  0.92900  1.0000
  C   C1028     1.0  0.82025  0.48150  0.99567  1.0000
  C   C1029     1.0  0.51850  0.33875  0.86233  1.0000
  C   C1030     1.0  0.67975  0.16125  0.87100  1.0000
  C   C1031     1.0  0.98150  0.32025  0.80433  1.0000
  C   C1032     1.0  0.83875  0.01850  0.93767  1.0000
  H   H1423     1.0  0.63879  0.17390  0.91541  1.0000
  H   H1424     1.0  0.82610  0.46490  0.98208  1.0000
  H   H1425     1.0  0.53510  0.36121  0.84874  1.0000
  H   H1426     1.0  0.67390  0.13879  0.88459  1.0000
  H   H1427     1.0  0.96490  0.32610  0.81792  1.0000
  H   H1428     1.0  0.86121  0.03510  0.95126  1.0000
  H   H1429     1.0  0.65740  0.15820  0.94341  1.0000
  H   H1430     1.0  0.84180  0.49920  0.81007  1.0000
  H   H1431     1.0  0.50080  0.34260  0.87674  1.0000
  H   H1432     1.0  0.65820  0.15740  0.85659  1.0000
  H   H1433     1.0  0.99920  0.34180  0.98993  1.0000
  H   H1434     1.0  0.84260  0.00080  0.92326  1.0000
  C   C1033     1.0  0.68975  0.18975  0.90000  1.0000
  C   C1034     1.0  0.81025  0.00000  0.96667  1.0000
  C   C1035     1.0  0.50000  0.31025  0.83333  1.0000
  H   H1435     1.0  0.69441  0.21192  0.88651  1.0000
  H   H1436     1.0  0.78808  0.48249  0.95317  1.0000
  H   H1437     1.0  0.51751  0.30559  0.81984  1.0000
  H   H1438     1.0  0.71192  0.19441  0.91349  1.0000
  H   H1439     1.0  0.98249  0.28808  0.84683  1.0000
  H   H1440     1.0  0.80559  0.01751  0.98016  1.0000
  Zn  Zn91      1.0  0.66347  0.80299  0.10346  1.0000
  Zn  Zn92      1.0  0.69701  0.86048  0.17013  1.0000
  Zn  Zn93      1.0  0.63951  0.83653  0.03680  1.0000
  Zn  Zn94      1.0  0.80299  0.66347  0.09654  1.0000
  Zn  Zn95      1.0  0.86048  0.69701  0.02987  1.0000
  Zn  Zn96      1.0  0.83652  0.63951  0.16320  1.0000
  O   O271      1.0  0.70666  0.82560  0.14008  1.0000
  O   O272      1.0  0.67441  0.88106  0.00675  1.0000
  O   O273      1.0  0.61894  0.79334  0.07341  1.0000
  O   O274      1.0  0.82560  0.70666  0.05992  1.0000
  O   O275      1.0  0.88106  0.67441  0.19325  1.0000
  O   O276      1.0  0.79334  0.61894  0.12659  1.0000
  O   O277      1.0  0.67541  0.81877  0.01196  1.0000
  O   O278      1.0  0.68122  0.85664  0.07863  1.0000
  O   O279      1.0  0.64336  0.82459  0.14529  1.0000
  O   O280      1.0  0.81877  0.67541  0.18804  1.0000
  O   O281      1.0  0.85663  0.68122  0.12137  1.0000
  O   O282      1.0  0.82459  0.64336  0.05471  1.0000
  O   O283      1.0  0.68762  0.79136  0.05912  1.0000
  O   O284      1.0  0.70863  0.89626  0.12579  1.0000
  O   O285      1.0  0.60374  0.81238  0.19245  1.0000
  O   O286      1.0  0.79136  0.68762  0.14088  1.0000
  O   O287      1.0  0.89625  0.70863  0.07421  1.0000
  O   O288      1.0  0.81238  0.60374  0.00755  1.0000
  N   N181      1.0  0.64190  0.75035  0.12576  1.0000
  N   N182      1.0  0.74965  0.89155  0.19243  1.0000
  N   N183      1.0  0.60845  0.85810  0.05909  1.0000
  N   N184      1.0  0.75035  0.64190  0.07424  1.0000
  N   N185      1.0  0.89155  0.74965  0.00757  1.0000
  N   N186      1.0  0.85810  0.60845  0.14091  1.0000
  H   H1441     1.0  0.62800  0.73543  0.10635  1.0000
  H   H1442     1.0  0.76457  0.89257  0.17302  1.0000
  H   H1443     1.0  0.60743  0.87200  0.03968  1.0000
  H   H1444     1.0  0.73543  0.62800  0.09365  1.0000
  H   H1445     1.0  0.89257  0.76457  0.02698  1.0000
  H   H1446     1.0  0.87200  0.60743  0.16032  1.0000
  H   H1447     1.0  0.66059  0.74650  0.12875  1.0000
  H   H1448     1.0  0.75350  0.91409  0.19541  1.0000
  H   H1449     1.0  0.58591  0.83941  0.06208  1.0000
  H   H1450     1.0  0.74650  0.66059  0.07125  1.0000
  H   H1451     1.0  0.91409  0.75350  0.00459  1.0000
  H   H1452     1.0  0.83941  0.58591  0.13792  1.0000
  C   C1036     1.0  0.72040  0.80770  0.15760  1.0000
  C   C1037     1.0  0.69230  0.91270  0.02427  1.0000
  C   C1038     1.0  0.58730  0.77960  0.09093  1.0000
  C   C1039     1.0  0.80770  0.72040  0.04240  1.0000
  C   C1040     1.0  0.91270  0.69230  0.17573  1.0000
  C   C1041     1.0  0.77960  0.58730  0.10907  1.0000
  C   C1042     1.0  0.71480  0.79715  0.19770  1.0000
  C   C1043     1.0  0.70285  0.91765  0.06437  1.0000
  C   C1044     1.0  0.58235  0.78520  0.13103  1.0000
  C   C1045     1.0  0.79715  0.71480  0.00230  1.0000
  C   C1046     1.0  0.91765  0.70285  0.13563  1.0000
  C   C1047     1.0  0.78520  0.58235  0.06897  1.0000
  C   C1048     1.0  0.73180  0.77985  0.01314  1.0000
  C   C1049     1.0  0.72015  0.95195  0.07981  1.0000
  C   C1050     1.0  0.54805  0.76820  0.14647  1.0000
  C   C1051     1.0  0.77985  0.73180  0.18686  1.0000
  C   C1052     1.0  0.95195  0.72015  0.12019  1.0000
  C   C1053     1.0  0.76820  0.54805  0.05353  1.0000
  H   H1453     1.0  0.72806  0.77308  0.04002  1.0000
  H   H1454     1.0  0.72692  0.95498  0.10669  1.0000
  H   H1455     1.0  0.54502  0.77194  0.17336  1.0000
  H   H1456     1.0  0.77308  0.72806  0.15998  1.0000
  H   H1457     1.0  0.95498  0.72692  0.09331  1.0000
  H   H1458     1.0  0.77194  0.54502  0.02664  1.0000
  C   C1054     1.0  0.75405  0.77195  0.19124  1.0000
  C   C1055     1.0  0.72805  0.98210  0.05791  1.0000
  C   C1056     1.0  0.51790  0.74595  0.12457  1.0000
  C   C1057     1.0  0.77195  0.75405  0.00876  1.0000
  C   C1058     1.0  0.98210  0.72805  0.14209  1.0000
  C   C1059     1.0  0.74595  0.51790  0.07543  1.0000
  C   C1060     1.0  0.75860  0.78175  0.15170  1.0000
  C   C1061     1.0  0.71825  0.97685  0.01837  1.0000
  C   C1062     1.0  0.52315  0.74140  0.08503  1.0000
  C   C1063     1.0  0.78175  0.75860  0.04830  1.0000
  C   C1064     1.0  0.97685  0.71825  0.18163  1.0000
  C   C1065     1.0  0.74140  0.52315  0.11497  1.0000
  H   H1459     1.0  0.77322  0.77633  0.13565  1.0000
  H   H1460     1.0  0.72367  0.99688  0.00232  1.0000
  H   H1461     1.0  0.50312  0.72678  0.06899  1.0000
  H   H1462     1.0  0.77633  0.77322  0.06435  1.0000
  H   H1463     1.0  0.99688  0.72366  0.19768  1.0000
  H   H1464     1.0  0.72678  0.50312  0.13101  1.0000
  C   C1066     1.0  0.74215  0.79920  0.13538  1.0000
  C   C1067     1.0  0.70080  0.94295  0.00205  1.0000
  C   C1068     1.0  0.55705  0.75785  0.06871  1.0000
  C   C1069     1.0  0.79920  0.74215  0.06462  1.0000
  C   C1070     1.0  0.94295  0.70080  0.19795  1.0000
  C   C1071     1.0  0.75785  0.55705  0.13129  1.0000
  H   H1465     1.0  0.74582  0.80549  0.10837  1.0000
  H   H1466     1.0  0.69451  0.94033  0.17504  1.0000
  H   H1467     1.0  0.55967  0.75418  0.04170  1.0000
  H   H1468     1.0  0.80549  0.74582  0.09163  1.0000
  H   H1469     1.0  0.94033  0.69451  0.02496  1.0000
  H   H1470     1.0  0.75418  0.55967  0.15830  1.0000
  C   C1072     1.0  0.69100  0.80295  0.02468  1.0000
  C   C1073     1.0  0.69705  0.88805  0.09135  1.0000
  C   C1074     1.0  0.61195  0.80900  0.15801  1.0000
  C   C1075     1.0  0.80295  0.69100  0.17532  1.0000
  C   C1076     1.0  0.88805  0.69705  0.10865  1.0000
  C   C1077     1.0  0.80900  0.61195  0.04199  1.0000
  N   N187      1.0  0.66995  0.70745  0.15580  1.0000
  N   N188      1.0  0.79255  0.96250  0.02247  1.0000
  N   N189      1.0  0.53750  0.83005  0.08913  1.0000
  N   N190      1.0  0.70745  0.66995  0.04420  1.0000
  N   N191      1.0  0.96250  0.79255  0.17753  1.0000
  N   N192      1.0  0.83005  0.53750  0.11087  1.0000
  H   H1471     1.0  0.67166  0.72635  0.14221  1.0000
  H   H1472     1.0  0.77365  0.94531  0.00887  1.0000
  H   H1473     1.0  0.55469  0.82834  0.07554  1.0000
  H   H1474     1.0  0.72635  0.67166  0.05779  1.0000
  H   H1475     1.0  0.94531  0.77365  0.19113  1.0000
  H   H1476     1.0  0.82834  0.55469  0.12446  1.0000
  H   H1477     1.0  0.69199  0.71426  0.16564  1.0000
  H   H1478     1.0  0.78574  0.97773  0.03230  1.0000
  H   H1479     1.0  0.52227  0.80801  0.09897  1.0000
  H   H1480     1.0  0.71426  0.69199  0.03436  1.0000
  H   H1481     1.0  0.97773  0.78574  0.16770  1.0000
  H   H1482     1.0  0.80801  0.52227  0.10103  1.0000
  C   C1078     1.0  0.62105  0.73795  0.16182  1.0000
  C   C1079     1.0  0.76205  0.88310  0.02849  1.0000
  C   C1080     1.0  0.61690  0.87895  0.09515  1.0000
  C   C1081     1.0  0.73795  0.62105  0.03818  1.0000
  C   C1082     1.0  0.88310  0.76205  0.17151  1.0000
  C   C1083     1.0  0.87895  0.61690  0.10485  1.0000
  H   H1483     1.0  0.59871  0.73858  0.15789  1.0000
  H   H1484     1.0  0.76142  0.86012  0.02456  1.0000
  H   H1485     1.0  0.63988  0.90129  0.09123  1.0000
  H   H1486     1.0  0.73858  0.59871  0.04211  1.0000
  H   H1487     1.0  0.86012  0.76142  0.17544  1.0000
  H   H1488     1.0  0.90129  0.63988  0.10877  1.0000
  H   H1489     1.0  0.63460  0.75517  0.18295  1.0000
  H   H1490     1.0  0.74483  0.87943  0.04961  1.0000
  H   H1491     1.0  0.62056  0.86540  0.11628  1.0000
  H   H1492     1.0  0.75517  0.63460  0.01705  1.0000
  H   H1493     1.0  0.87943  0.74483  0.15039  1.0000
  H   H1494     1.0  0.86540  0.62056  0.08372  1.0000
  C   C1084     1.0  0.61120  0.70095  0.17604  1.0000
  C   C1085     1.0  0.79905  0.91025  0.04271  1.0000
  C   C1086     1.0  0.58975  0.88880  0.10937  1.0000
  C   C1087     1.0  0.70095  0.61120  0.02396  1.0000
  C   C1088     1.0  0.91025  0.79905  0.15729  1.0000
  C   C1089     1.0  0.88880  0.58975  0.09063  1.0000
  H   H1495     1.0  0.59974  0.68356  0.15445  1.0000
  H   H1496     1.0  0.81644  0.91619  0.02112  1.0000
  H   H1497     1.0  0.58381  0.90026  0.08778  1.0000
  H   H1498     1.0  0.68356  0.59974  0.04555  1.0000
  H   H1499     1.0  0.91619  0.81644  0.17888  1.0000
  H   H1500     1.0  0.90026  0.58381  0.11222  1.0000
  H   H1501     1.0  0.59394  0.69392  0.19793  1.0000
  H   H1502     1.0  0.80608  0.90002  0.06460  1.0000
  H   H1503     1.0  0.59998  0.90606  0.13127  1.0000
  H   H1504     1.0  0.69392  0.59394  0.00207  1.0000
  H   H1505     1.0  0.90002  0.80608  0.13540  1.0000
  H   H1506     1.0  0.90606  0.59998  0.06873  1.0000
  C   C1090     1.0  0.64495  0.70020  0.19020  1.0000
  C   C1091     1.0  0.79980  0.94475  0.05687  1.0000
  C   C1092     1.0  0.55525  0.85505  0.12353  1.0000
  C   C1093     1.0  0.70020  0.64495  0.00980  1.0000
  C   C1094     1.0  0.94475  0.79980  0.14313  1.0000
  C   C1095     1.0  0.85505  0.55525  0.07647  1.0000
  H   H1507     1.0  0.65726  0.71856  0.01072  1.0000
  H   H1508     1.0  0.78144  0.93871  0.07738  1.0000
  H   H1509     1.0  0.56129  0.84274  0.14405  1.0000
  H   H1510     1.0  0.71856  0.65726  0.18928  1.0000
  H   H1511     1.0  0.93871  0.78144  0.12262  1.0000
  H   H1512     1.0  0.84274  0.56129  0.05595  1.0000
  H   H1513     1.0  0.63794  0.67661  0.00169  1.0000
  H   H1514     1.0  0.82339  0.96133  0.06836  1.0000
  H   H1515     1.0  0.53867  0.86206  0.13502  1.0000
  H   H1516     1.0  0.67661  0.63794  0.19831  1.0000
  H   H1517     1.0  0.96133  0.82339  0.13164  1.0000
  H   H1518     1.0  0.86206  0.53867  0.06498  1.0000
  C   C1096     1.0  0.66125  0.67975  0.12900  1.0000
  C   C1097     1.0  0.82025  0.98150  0.19567  1.0000
  C   C1098     1.0  0.51850  0.83875  0.06233  1.0000
  C   C1099     1.0  0.67975  0.66125  0.07100  1.0000
  C   C1100     1.0  0.98150  0.82025  0.00433  1.0000
  C   C1101     1.0  0.83875  0.51850  0.13767  1.0000
  H   H1519     1.0  0.63879  0.67390  0.11541  1.0000
  H   H1520     1.0  0.82610  0.96490  0.18208  1.0000
  H   H1521     1.0  0.53510  0.86121  0.04874  1.0000
  H   H1522     1.0  0.67390  0.63879  0.08459  1.0000
  H   H1523     1.0  0.96490  0.82610  0.01792  1.0000
  H   H1524     1.0  0.86121  0.53510  0.15126  1.0000
  H   H1525     1.0  0.65740  0.65820  0.14341  1.0000
  H   H1526     1.0  0.84180  0.99920  0.01007  1.0000
  H   H1527     1.0  0.50080  0.84260  0.07674  1.0000
  H   H1528     1.0  0.65820  0.65740  0.05659  1.0000
  H   H1529     1.0  0.99920  0.84180  0.18993  1.0000
  H   H1530     1.0  0.84260  0.50080  0.12326  1.0000
  C   C1102     1.0  0.68975  0.68975  0.10000  1.0000
  C   C1103     1.0  0.81025  0.50000  0.16667  1.0000
  C   C1104     1.0  0.50000  0.81025  0.03333  1.0000
  H   H1531     1.0  0.69441  0.71192  0.08651  1.0000
  H   H1532     1.0  0.78808  0.98249  0.15317  1.0000
  H   H1533     1.0  0.51751  0.80559  0.01984  1.0000
  H   H1534     1.0  0.71192  0.69441  0.11349  1.0000
  H   H1535     1.0  0.98249  0.78808  0.04683  1.0000
  H   H1536     1.0  0.80559  0.51751  0.18016  1.0000
  Zn  Zn97      1.0  0.66347  0.80299  0.30346  1.0000
  Zn  Zn98      1.0  0.69701  0.86048  0.37013  1.0000
  Zn  Zn99      1.0  0.63951  0.83653  0.23680  1.0000
  Zn  Zn100     1.0  0.80299  0.66347  0.29654  1.0000
  Zn  Zn101     1.0  0.86048  0.69701  0.22987  1.0000
  Zn  Zn102     1.0  0.83652  0.63951  0.36320  1.0000
  O   O289      1.0  0.70666  0.82560  0.34008  1.0000
  O   O290      1.0  0.67441  0.88106  0.20675  1.0000
  O   O291      1.0  0.61894  0.79334  0.27341  1.0000
  O   O292      1.0  0.82560  0.70666  0.25992  1.0000
  O   O293      1.0  0.88106  0.67441  0.39325  1.0000
  O   O294      1.0  0.79334  0.61894  0.32659  1.0000
  O   O295      1.0  0.67541  0.81877  0.21196  1.0000
  O   O296      1.0  0.68122  0.85664  0.27863  1.0000
  O   O297      1.0  0.64336  0.82459  0.34529  1.0000
  O   O298      1.0  0.81877  0.67541  0.38804  1.0000
  O   O299      1.0  0.85663  0.68122  0.32137  1.0000
  O   O300      1.0  0.82459  0.64336  0.25471  1.0000
  O   O301      1.0  0.68762  0.79136  0.25912  1.0000
  O   O302      1.0  0.70863  0.89626  0.32579  1.0000
  O   O303      1.0  0.60374  0.81238  0.39245  1.0000
  O   O304      1.0  0.79136  0.68762  0.34088  1.0000
  O   O305      1.0  0.89625  0.70863  0.27421  1.0000
  O   O306      1.0  0.81238  0.60374  0.20755  1.0000
  N   N193      1.0  0.64190  0.75035  0.32576  1.0000
  N   N194      1.0  0.74965  0.89155  0.39243  1.0000
  N   N195      1.0  0.60845  0.85810  0.25909  1.0000
  N   N196      1.0  0.75035  0.64190  0.27424  1.0000
  N   N197      1.0  0.89155  0.74965  0.20757  1.0000
  N   N198      1.0  0.85810  0.60845  0.34091  1.0000
  H   H1537     1.0  0.62800  0.73543  0.30635  1.0000
  H   H1538     1.0  0.76457  0.89257  0.37302  1.0000
  H   H1539     1.0  0.60743  0.87200  0.23968  1.0000
  H   H1540     1.0  0.73543  0.62800  0.29365  1.0000
  H   H1541     1.0  0.89257  0.76457  0.22698  1.0000
  H   H1542     1.0  0.87200  0.60743  0.36032  1.0000
  H   H1543     1.0  0.66059  0.74650  0.32875  1.0000
  H   H1544     1.0  0.75350  0.91409  0.39541  1.0000
  H   H1545     1.0  0.58591  0.83941  0.26208  1.0000
  H   H1546     1.0  0.74650  0.66059  0.27125  1.0000
  H   H1547     1.0  0.91409  0.75350  0.20459  1.0000
  H   H1548     1.0  0.83941  0.58591  0.33792  1.0000
  C   C1105     1.0  0.72040  0.80770  0.35760  1.0000
  C   C1106     1.0  0.69230  0.91270  0.22427  1.0000
  C   C1107     1.0  0.58730  0.77960  0.29093  1.0000
  C   C1108     1.0  0.80770  0.72040  0.24240  1.0000
  C   C1109     1.0  0.91270  0.69230  0.37573  1.0000
  C   C1110     1.0  0.77960  0.58730  0.30907  1.0000
  C   C1111     1.0  0.71480  0.79715  0.39770  1.0000
  C   C1112     1.0  0.70285  0.91765  0.26437  1.0000
  C   C1113     1.0  0.58235  0.78520  0.33103  1.0000
  C   C1114     1.0  0.79715  0.71480  0.20230  1.0000
  C   C1115     1.0  0.91765  0.70285  0.33563  1.0000
  C   C1116     1.0  0.78520  0.58235  0.26897  1.0000
  C   C1117     1.0  0.73180  0.77985  0.21314  1.0000
  C   C1118     1.0  0.72015  0.95195  0.27981  1.0000
  C   C1119     1.0  0.54805  0.76820  0.34647  1.0000
  C   C1120     1.0  0.77985  0.73180  0.38686  1.0000
  C   C1121     1.0  0.95195  0.72015  0.32019  1.0000
  C   C1122     1.0  0.76820  0.54805  0.25353  1.0000
  H   H1549     1.0  0.72806  0.77308  0.24002  1.0000
  H   H1550     1.0  0.72692  0.95498  0.30669  1.0000
  H   H1551     1.0  0.54502  0.77194  0.37336  1.0000
  H   H1552     1.0  0.77308  0.72806  0.35998  1.0000
  H   H1553     1.0  0.95498  0.72692  0.29331  1.0000
  H   H1554     1.0  0.77194  0.54502  0.22664  1.0000
  C   C1123     1.0  0.75405  0.77195  0.39124  1.0000
  C   C1124     1.0  0.72805  0.98210  0.25791  1.0000
  C   C1125     1.0  0.51790  0.74595  0.32457  1.0000
  C   C1126     1.0  0.77195  0.75405  0.20876  1.0000
  C   C1127     1.0  0.98210  0.72805  0.34209  1.0000
  C   C1128     1.0  0.74595  0.51790  0.27543  1.0000
  C   C1129     1.0  0.75860  0.78175  0.35170  1.0000
  C   C1130     1.0  0.71825  0.97685  0.21837  1.0000
  C   C1131     1.0  0.52315  0.74140  0.28503  1.0000
  C   C1132     1.0  0.78175  0.75860  0.24830  1.0000
  C   C1133     1.0  0.97685  0.71825  0.38163  1.0000
  C   C1134     1.0  0.74140  0.52315  0.31497  1.0000
  H   H1555     1.0  0.77322  0.77633  0.33565  1.0000
  H   H1556     1.0  0.72367  0.99688  0.20232  1.0000
  H   H1557     1.0  0.50312  0.72678  0.26899  1.0000
  H   H1558     1.0  0.77633  0.77322  0.26435  1.0000
  H   H1559     1.0  0.99688  0.72366  0.39768  1.0000
  H   H1560     1.0  0.72678  0.50312  0.33101  1.0000
  C   C1135     1.0  0.74215  0.79920  0.33538  1.0000
  C   C1136     1.0  0.70080  0.94295  0.20205  1.0000
  C   C1137     1.0  0.55705  0.75785  0.26871  1.0000
  C   C1138     1.0  0.79920  0.74215  0.26462  1.0000
  C   C1139     1.0  0.94295  0.70080  0.39795  1.0000
  C   C1140     1.0  0.75785  0.55705  0.33129  1.0000
  H   H1561     1.0  0.74582  0.80549  0.30837  1.0000
  H   H1562     1.0  0.69451  0.94033  0.37504  1.0000
  H   H1563     1.0  0.55967  0.75418  0.24170  1.0000
  H   H1564     1.0  0.80549  0.74582  0.29163  1.0000
  H   H1565     1.0  0.94033  0.69451  0.22496  1.0000
  H   H1566     1.0  0.75418  0.55967  0.35830  1.0000
  C   C1141     1.0  0.69100  0.80295  0.22468  1.0000
  C   C1142     1.0  0.69705  0.88805  0.29135  1.0000
  C   C1143     1.0  0.61195  0.80900  0.35801  1.0000
  C   C1144     1.0  0.80295  0.69100  0.37532  1.0000
  C   C1145     1.0  0.88805  0.69705  0.30865  1.0000
  C   C1146     1.0  0.80900  0.61195  0.24199  1.0000
  N   N199      1.0  0.66995  0.70745  0.35580  1.0000
  N   N200      1.0  0.79255  0.96250  0.22247  1.0000
  N   N201      1.0  0.53750  0.83005  0.28913  1.0000
  N   N202      1.0  0.70745  0.66995  0.24420  1.0000
  N   N203      1.0  0.96250  0.79255  0.37753  1.0000
  N   N204      1.0  0.83005  0.53750  0.31087  1.0000
  H   H1567     1.0  0.67166  0.72635  0.34221  1.0000
  H   H1568     1.0  0.77365  0.94531  0.20887  1.0000
  H   H1569     1.0  0.55469  0.82834  0.27554  1.0000
  H   H1570     1.0  0.72635  0.67166  0.25779  1.0000
  H   H1571     1.0  0.94531  0.77365  0.39113  1.0000
  H   H1572     1.0  0.82834  0.55469  0.32446  1.0000
  H   H1573     1.0  0.69199  0.71426  0.36564  1.0000
  H   H1574     1.0  0.78574  0.97773  0.23230  1.0000
  H   H1575     1.0  0.52227  0.80801  0.29897  1.0000
  H   H1576     1.0  0.71426  0.69199  0.23437  1.0000
  H   H1577     1.0  0.97773  0.78574  0.36770  1.0000
  H   H1578     1.0  0.80801  0.52227  0.30103  1.0000
  C   C1147     1.0  0.62105  0.73795  0.36182  1.0000
  C   C1148     1.0  0.76205  0.88310  0.22849  1.0000
  C   C1149     1.0  0.61690  0.87895  0.29515  1.0000
  C   C1150     1.0  0.73795  0.62105  0.23818  1.0000
  C   C1151     1.0  0.88310  0.76205  0.37151  1.0000
  C   C1152     1.0  0.87895  0.61690  0.30485  1.0000
  H   H1579     1.0  0.59871  0.73858  0.35789  1.0000
  H   H1580     1.0  0.76142  0.86012  0.22456  1.0000
  H   H1581     1.0  0.63988  0.90129  0.29123  1.0000
  H   H1582     1.0  0.73858  0.59871  0.24211  1.0000
  H   H1583     1.0  0.86012  0.76142  0.37544  1.0000
  H   H1584     1.0  0.90129  0.63988  0.30877  1.0000
  H   H1585     1.0  0.63460  0.75517  0.38295  1.0000
  H   H1586     1.0  0.74483  0.87943  0.24961  1.0000
  H   H1587     1.0  0.62056  0.86540  0.31628  1.0000
  H   H1588     1.0  0.75517  0.63460  0.21705  1.0000
  H   H1589     1.0  0.87943  0.74483  0.35039  1.0000
  H   H1590     1.0  0.86540  0.62056  0.28372  1.0000
  C   C1153     1.0  0.61120  0.70095  0.37604  1.0000
  C   C1154     1.0  0.79905  0.91025  0.24271  1.0000
  C   C1155     1.0  0.58975  0.88880  0.30937  1.0000
  C   C1156     1.0  0.70095  0.61120  0.22396  1.0000
  C   C1157     1.0  0.91025  0.79905  0.35729  1.0000
  C   C1158     1.0  0.88880  0.58975  0.29063  1.0000
  H   H1591     1.0  0.59974  0.68356  0.35445  1.0000
  H   H1592     1.0  0.81644  0.91619  0.22112  1.0000
  H   H1593     1.0  0.58381  0.90026  0.28778  1.0000
  H   H1594     1.0  0.68356  0.59974  0.24555  1.0000
  H   H1595     1.0  0.91619  0.81644  0.37888  1.0000
  H   H1596     1.0  0.90026  0.58381  0.31222  1.0000
  H   H1597     1.0  0.59394  0.69392  0.39793  1.0000
  H   H1598     1.0  0.80608  0.90002  0.26460  1.0000
  H   H1599     1.0  0.59998  0.90606  0.33127  1.0000
  H   H1600     1.0  0.69392  0.59394  0.20207  1.0000
  H   H1601     1.0  0.90002  0.80608  0.33540  1.0000
  H   H1602     1.0  0.90606  0.59998  0.26873  1.0000
  C   C1159     1.0  0.64495  0.70020  0.39020  1.0000
  C   C1160     1.0  0.79980  0.94475  0.25687  1.0000
  C   C1161     1.0  0.55525  0.85505  0.32353  1.0000
  C   C1162     1.0  0.70020  0.64495  0.20980  1.0000
  C   C1163     1.0  0.94475  0.79980  0.34313  1.0000
  C   C1164     1.0  0.85505  0.55525  0.27647  1.0000
  H   H1603     1.0  0.65726  0.71856  0.21072  1.0000
  H   H1604     1.0  0.78144  0.93871  0.27738  1.0000
  H   H1605     1.0  0.56129  0.84274  0.34405  1.0000
  H   H1606     1.0  0.71856  0.65726  0.38928  1.0000
  H   H1607     1.0  0.93871  0.78144  0.32262  1.0000
  H   H1608     1.0  0.84274  0.56129  0.25595  1.0000
  H   H1609     1.0  0.63794  0.67661  0.20169  1.0000
  H   H1610     1.0  0.82339  0.96133  0.26836  1.0000
  H   H1611     1.0  0.53867  0.86206  0.33502  1.0000
  H   H1612     1.0  0.67661  0.63794  0.39831  1.0000
  H   H1613     1.0  0.96133  0.82339  0.33164  1.0000
  H   H1614     1.0  0.86206  0.53867  0.26498  1.0000
  C   C1165     1.0  0.66125  0.67975  0.32900  1.0000
  C   C1166     1.0  0.82025  0.98150  0.39567  1.0000
  C   C1167     1.0  0.51850  0.83875  0.26233  1.0000
  C   C1168     1.0  0.67975  0.66125  0.27100  1.0000
  C   C1169     1.0  0.98150  0.82025  0.20433  1.0000
  C   C1170     1.0  0.83875  0.51850  0.33767  1.0000
  H   H1615     1.0  0.63879  0.67390  0.31541  1.0000
  H   H1616     1.0  0.82610  0.96490  0.38208  1.0000
  H   H1617     1.0  0.53510  0.86121  0.24874  1.0000
  H   H1618     1.0  0.67390  0.63879  0.28459  1.0000
  H   H1619     1.0  0.96490  0.82610  0.21792  1.0000
  H   H1620     1.0  0.86121  0.53510  0.35126  1.0000
  H   H1621     1.0  0.65740  0.65820  0.34341  1.0000
  H   H1622     1.0  0.84180  0.99920  0.21007  1.0000
  H   H1623     1.0  0.50080  0.84260  0.27674  1.0000
  H   H1624     1.0  0.65820  0.65740  0.25659  1.0000
  H   H1625     1.0  0.99920  0.84180  0.38993  1.0000
  H   H1626     1.0  0.84260  0.50080  0.32326  1.0000
  C   C1171     1.0  0.68975  0.68975  0.30000  1.0000
  C   C1172     1.0  0.81025  0.50000  0.36667  1.0000
  C   C1173     1.0  0.50000  0.81025  0.23333  1.0000
  H   H1627     1.0  0.69441  0.71192  0.28651  1.0000
  H   H1628     1.0  0.78808  0.98249  0.35317  1.0000
  H   H1629     1.0  0.51751  0.80559  0.21984  1.0000
  H   H1630     1.0  0.71192  0.69441  0.31349  1.0000
  H   H1631     1.0  0.98249  0.78808  0.24683  1.0000
  H   H1632     1.0  0.80559  0.51751  0.38016  1.0000
  Zn  Zn103     1.0  0.66347  0.80299  0.50346  1.0000
  Zn  Zn104     1.0  0.69701  0.86048  0.57013  1.0000
  Zn  Zn105     1.0  0.63951  0.83653  0.43680  1.0000
  Zn  Zn106     1.0  0.80299  0.66347  0.49654  1.0000
  Zn  Zn107     1.0  0.86048  0.69701  0.42987  1.0000
  Zn  Zn108     1.0  0.83652  0.63951  0.56320  1.0000
  O   O307      1.0  0.70666  0.82560  0.54008  1.0000
  O   O308      1.0  0.67441  0.88106  0.40675  1.0000
  O   O309      1.0  0.61894  0.79334  0.47341  1.0000
  O   O310      1.0  0.82560  0.70666  0.45992  1.0000
  O   O311      1.0  0.88106  0.67441  0.59325  1.0000
  O   O312      1.0  0.79334  0.61894  0.52659  1.0000
  O   O313      1.0  0.67541  0.81877  0.41196  1.0000
  O   O314      1.0  0.68122  0.85664  0.47863  1.0000
  O   O315      1.0  0.64336  0.82459  0.54529  1.0000
  O   O316      1.0  0.81877  0.67541  0.58804  1.0000
  O   O317      1.0  0.85663  0.68122  0.52137  1.0000
  O   O318      1.0  0.82459  0.64336  0.45471  1.0000
  O   O319      1.0  0.68762  0.79136  0.45912  1.0000
  O   O320      1.0  0.70863  0.89626  0.52579  1.0000
  O   O321      1.0  0.60374  0.81238  0.59245  1.0000
  O   O322      1.0  0.79136  0.68762  0.54088  1.0000
  O   O323      1.0  0.89625  0.70863  0.47421  1.0000
  O   O324      1.0  0.81238  0.60374  0.40755  1.0000
  N   N205      1.0  0.64190  0.75035  0.52576  1.0000
  N   N206      1.0  0.74965  0.89155  0.59243  1.0000
  N   N207      1.0  0.60845  0.85810  0.45909  1.0000
  N   N208      1.0  0.75035  0.64190  0.47424  1.0000
  N   N209      1.0  0.89155  0.74965  0.40757  1.0000
  N   N210      1.0  0.85810  0.60845  0.54091  1.0000
  H   H1633     1.0  0.62800  0.73543  0.50635  1.0000
  H   H1634     1.0  0.76457  0.89257  0.57302  1.0000
  H   H1635     1.0  0.60743  0.87200  0.43968  1.0000
  H   H1636     1.0  0.73543  0.62800  0.49365  1.0000
  H   H1637     1.0  0.89257  0.76457  0.42698  1.0000
  H   H1638     1.0  0.87200  0.60743  0.56032  1.0000
  H   H1639     1.0  0.66059  0.74650  0.52875  1.0000
  H   H1640     1.0  0.75350  0.91409  0.59541  1.0000
  H   H1641     1.0  0.58591  0.83941  0.46208  1.0000
  H   H1642     1.0  0.74650  0.66059  0.47125  1.0000
  H   H1643     1.0  0.91409  0.75350  0.40459  1.0000
  H   H1644     1.0  0.83941  0.58591  0.53792  1.0000
  C   C1174     1.0  0.72040  0.80770  0.55760  1.0000
  C   C1175     1.0  0.69230  0.91270  0.42427  1.0000
  C   C1176     1.0  0.58730  0.77960  0.49093  1.0000
  C   C1177     1.0  0.80770  0.72040  0.44240  1.0000
  C   C1178     1.0  0.91270  0.69230  0.57573  1.0000
  C   C1179     1.0  0.77960  0.58730  0.50907  1.0000
  C   C1180     1.0  0.71480  0.79715  0.59770  1.0000
  C   C1181     1.0  0.70285  0.91765  0.46437  1.0000
  C   C1182     1.0  0.58235  0.78520  0.53103  1.0000
  C   C1183     1.0  0.79715  0.71480  0.40230  1.0000
  C   C1184     1.0  0.91765  0.70285  0.53563  1.0000
  C   C1185     1.0  0.78520  0.58235  0.46897  1.0000
  C   C1186     1.0  0.73180  0.77985  0.41314  1.0000
  C   C1187     1.0  0.72015  0.95195  0.47981  1.0000
  C   C1188     1.0  0.54805  0.76820  0.54647  1.0000
  C   C1189     1.0  0.77985  0.73180  0.58686  1.0000
  C   C1190     1.0  0.95195  0.72015  0.52019  1.0000
  C   C1191     1.0  0.76820  0.54805  0.45353  1.0000
  H   H1645     1.0  0.72806  0.77308  0.44002  1.0000
  H   H1646     1.0  0.72692  0.95498  0.50669  1.0000
  H   H1647     1.0  0.54502  0.77194  0.57336  1.0000
  H   H1648     1.0  0.77308  0.72806  0.55998  1.0000
  H   H1649     1.0  0.95498  0.72692  0.49331  1.0000
  H   H1650     1.0  0.77194  0.54502  0.42664  1.0000
  C   C1192     1.0  0.75405  0.77195  0.59124  1.0000
  C   C1193     1.0  0.72805  0.98210  0.45791  1.0000
  C   C1194     1.0  0.51790  0.74595  0.52457  1.0000
  C   C1195     1.0  0.77195  0.75405  0.40876  1.0000
  C   C1196     1.0  0.98210  0.72805  0.54209  1.0000
  C   C1197     1.0  0.74595  0.51790  0.47543  1.0000
  C   C1198     1.0  0.75860  0.78175  0.55170  1.0000
  C   C1199     1.0  0.71825  0.97685  0.41837  1.0000
  C   C1200     1.0  0.52315  0.74140  0.48503  1.0000
  C   C1201     1.0  0.78175  0.75860  0.44830  1.0000
  C   C1202     1.0  0.97685  0.71825  0.58163  1.0000
  C   C1203     1.0  0.74140  0.52315  0.51497  1.0000
  H   H1651     1.0  0.77322  0.77633  0.53565  1.0000
  H   H1652     1.0  0.72367  0.99688  0.40232  1.0000
  H   H1653     1.0  0.50312  0.72678  0.46899  1.0000
  H   H1654     1.0  0.77633  0.77322  0.46435  1.0000
  H   H1655     1.0  0.99688  0.72366  0.59768  1.0000
  H   H1656     1.0  0.72678  0.50312  0.53101  1.0000
  C   C1204     1.0  0.74215  0.79920  0.53538  1.0000
  C   C1205     1.0  0.70080  0.94295  0.40205  1.0000
  C   C1206     1.0  0.55705  0.75785  0.46871  1.0000
  C   C1207     1.0  0.79920  0.74215  0.46462  1.0000
  C   C1208     1.0  0.94295  0.70080  0.59795  1.0000
  C   C1209     1.0  0.75785  0.55705  0.53129  1.0000
  H   H1657     1.0  0.74582  0.80549  0.50837  1.0000
  H   H1658     1.0  0.69451  0.94033  0.57504  1.0000
  H   H1659     1.0  0.55967  0.75418  0.44170  1.0000
  H   H1660     1.0  0.80549  0.74582  0.49163  1.0000
  H   H1661     1.0  0.94033  0.69451  0.42496  1.0000
  H   H1662     1.0  0.75418  0.55967  0.55830  1.0000
  C   C1210     1.0  0.69100  0.80295  0.42468  1.0000
  C   C1211     1.0  0.69705  0.88805  0.49135  1.0000
  C   C1212     1.0  0.61195  0.80900  0.55801  1.0000
  C   C1213     1.0  0.80295  0.69100  0.57532  1.0000
  C   C1214     1.0  0.88805  0.69705  0.50865  1.0000
  C   C1215     1.0  0.80900  0.61195  0.44199  1.0000
  N   N211      1.0  0.66995  0.70745  0.55580  1.0000
  N   N212      1.0  0.79255  0.96250  0.42247  1.0000
  N   N213      1.0  0.53750  0.83005  0.48913  1.0000
  N   N214      1.0  0.70745  0.66995  0.44420  1.0000
  N   N215      1.0  0.96250  0.79255  0.57753  1.0000
  N   N216      1.0  0.83005  0.53750  0.51087  1.0000
  H   H1663     1.0  0.67166  0.72635  0.54221  1.0000
  H   H1664     1.0  0.77365  0.94531  0.40887  1.0000
  H   H1665     1.0  0.55469  0.82834  0.47554  1.0000
  H   H1666     1.0  0.72635  0.67166  0.45779  1.0000
  H   H1667     1.0  0.94531  0.77365  0.59113  1.0000
  H   H1668     1.0  0.82834  0.55469  0.52446  1.0000
  H   H1669     1.0  0.69199  0.71426  0.56563  1.0000
  H   H1670     1.0  0.78574  0.97773  0.43230  1.0000
  H   H1671     1.0  0.52227  0.80801  0.49897  1.0000
  H   H1672     1.0  0.71426  0.69199  0.43437  1.0000
  H   H1673     1.0  0.97773  0.78574  0.56770  1.0000
  H   H1674     1.0  0.80801  0.52227  0.50103  1.0000
  C   C1216     1.0  0.62105  0.73795  0.56182  1.0000
  C   C1217     1.0  0.76205  0.88310  0.42849  1.0000
  C   C1218     1.0  0.61690  0.87895  0.49515  1.0000
  C   C1219     1.0  0.73795  0.62105  0.43818  1.0000
  C   C1220     1.0  0.88310  0.76205  0.57151  1.0000
  C   C1221     1.0  0.87895  0.61690  0.50485  1.0000
  H   H1675     1.0  0.59871  0.73858  0.55789  1.0000
  H   H1676     1.0  0.76142  0.86012  0.42456  1.0000
  H   H1677     1.0  0.63988  0.90129  0.49123  1.0000
  H   H1678     1.0  0.73858  0.59871  0.44211  1.0000
  H   H1679     1.0  0.86012  0.76142  0.57544  1.0000
  H   H1680     1.0  0.90129  0.63988  0.50877  1.0000
  H   H1681     1.0  0.63460  0.75517  0.58295  1.0000
  H   H1682     1.0  0.74483  0.87943  0.44961  1.0000
  H   H1683     1.0  0.62056  0.86540  0.51628  1.0000
  H   H1684     1.0  0.75517  0.63460  0.41705  1.0000
  H   H1685     1.0  0.87943  0.74483  0.55039  1.0000
  H   H1686     1.0  0.86540  0.62056  0.48372  1.0000
  C   C1222     1.0  0.61120  0.70095  0.57604  1.0000
  C   C1223     1.0  0.79905  0.91025  0.44271  1.0000
  C   C1224     1.0  0.58975  0.88880  0.50937  1.0000
  C   C1225     1.0  0.70095  0.61120  0.42396  1.0000
  C   C1226     1.0  0.91025  0.79905  0.55729  1.0000
  C   C1227     1.0  0.88880  0.58975  0.49063  1.0000
  H   H1687     1.0  0.59974  0.68356  0.55445  1.0000
  H   H1688     1.0  0.81644  0.91619  0.42112  1.0000
  H   H1689     1.0  0.58381  0.90026  0.48778  1.0000
  H   H1690     1.0  0.68356  0.59974  0.44555  1.0000
  H   H1691     1.0  0.91619  0.81644  0.57888  1.0000
  H   H1692     1.0  0.90026  0.58381  0.51222  1.0000
  H   H1693     1.0  0.59394  0.69392  0.59793  1.0000
  H   H1694     1.0  0.80608  0.90002  0.46460  1.0000
  H   H1695     1.0  0.59998  0.90606  0.53127  1.0000
  H   H1696     1.0  0.69392  0.59394  0.40207  1.0000
  H   H1697     1.0  0.90002  0.80608  0.53540  1.0000
  H   H1698     1.0  0.90606  0.59998  0.46873  1.0000
  C   C1228     1.0  0.64495  0.70020  0.59020  1.0000
  C   C1229     1.0  0.79980  0.94475  0.45687  1.0000
  C   C1230     1.0  0.55525  0.85505  0.52353  1.0000
  C   C1231     1.0  0.70020  0.64495  0.40980  1.0000
  C   C1232     1.0  0.94475  0.79980  0.54313  1.0000
  C   C1233     1.0  0.85505  0.55525  0.47647  1.0000
  H   H1699     1.0  0.65726  0.71856  0.41072  1.0000
  H   H1700     1.0  0.78144  0.93871  0.47738  1.0000
  H   H1701     1.0  0.56129  0.84274  0.54405  1.0000
  H   H1702     1.0  0.71856  0.65726  0.58928  1.0000
  H   H1703     1.0  0.93871  0.78144  0.52262  1.0000
  H   H1704     1.0  0.84274  0.56129  0.45595  1.0000
  H   H1705     1.0  0.63794  0.67661  0.40169  1.0000
  H   H1706     1.0  0.82339  0.96133  0.46836  1.0000
  H   H1707     1.0  0.53867  0.86206  0.53502  1.0000
  H   H1708     1.0  0.67661  0.63794  0.59831  1.0000
  H   H1709     1.0  0.96133  0.82339  0.53164  1.0000
  H   H1710     1.0  0.86206  0.53867  0.46498  1.0000
  C   C1234     1.0  0.66125  0.67975  0.52900  1.0000
  C   C1235     1.0  0.82025  0.98150  0.59567  1.0000
  C   C1236     1.0  0.51850  0.83875  0.46233  1.0000
  C   C1237     1.0  0.67975  0.66125  0.47100  1.0000
  C   C1238     1.0  0.98150  0.82025  0.40433  1.0000
  C   C1239     1.0  0.83875  0.51850  0.53767  1.0000
  H   H1711     1.0  0.63879  0.67390  0.51541  1.0000
  H   H1712     1.0  0.82610  0.96490  0.58208  1.0000
  H   H1713     1.0  0.53510  0.86121  0.44874  1.0000
  H   H1714     1.0  0.67390  0.63879  0.48459  1.0000
  H   H1715     1.0  0.96490  0.82610  0.41792  1.0000
  H   H1716     1.0  0.86121  0.53510  0.55126  1.0000
  H   H1717     1.0  0.65740  0.65820  0.54341  1.0000
  H   H1718     1.0  0.84180  0.99920  0.41007  1.0000
  H   H1719     1.0  0.50080  0.84260  0.47674  1.0000
  H   H1720     1.0  0.65820  0.65740  0.45659  1.0000
  H   H1721     1.0  0.99920  0.84180  0.58993  1.0000
  H   H1722     1.0  0.84260  0.50080  0.52326  1.0000
  C   C1240     1.0  0.68975  0.68975  0.50000  1.0000
  C   C1241     1.0  0.81025  0.50000  0.56667  1.0000
  C   C1242     1.0  0.50000  0.81025  0.43333  1.0000
  H   H1723     1.0  0.69441  0.71192  0.48651  1.0000
  H   H1724     1.0  0.78808  0.98249  0.55317  1.0000
  H   H1725     1.0  0.51751  0.80559  0.41984  1.0000
  H   H1726     1.0  0.71192  0.69441  0.51349  1.0000
  H   H1727     1.0  0.98249  0.78808  0.44683  1.0000
  H   H1728     1.0  0.80559  0.51751  0.58016  1.0000
  Zn  Zn109     1.0  0.66347  0.80299  0.70346  1.0000
  Zn  Zn110     1.0  0.69701  0.86048  0.77013  1.0000
  Zn  Zn111     1.0  0.63951  0.83653  0.63680  1.0000
  Zn  Zn112     1.0  0.80299  0.66347  0.69654  1.0000
  Zn  Zn113     1.0  0.86048  0.69701  0.62987  1.0000
  Zn  Zn114     1.0  0.83652  0.63951  0.76320  1.0000
  O   O325      1.0  0.70666  0.82560  0.74008  1.0000
  O   O326      1.0  0.67441  0.88106  0.60675  1.0000
  O   O327      1.0  0.61894  0.79334  0.67341  1.0000
  O   O328      1.0  0.82560  0.70666  0.65992  1.0000
  O   O329      1.0  0.88106  0.67441  0.79325  1.0000
  O   O330      1.0  0.79334  0.61894  0.72659  1.0000
  O   O331      1.0  0.67541  0.81877  0.61196  1.0000
  O   O332      1.0  0.68122  0.85664  0.67863  1.0000
  O   O333      1.0  0.64336  0.82459  0.74529  1.0000
  O   O334      1.0  0.81877  0.67541  0.78804  1.0000
  O   O335      1.0  0.85663  0.68122  0.72137  1.0000
  O   O336      1.0  0.82459  0.64336  0.65471  1.0000
  O   O337      1.0  0.68762  0.79136  0.65912  1.0000
  O   O338      1.0  0.70863  0.89626  0.72579  1.0000
  O   O339      1.0  0.60374  0.81238  0.79245  1.0000
  O   O340      1.0  0.79136  0.68762  0.74088  1.0000
  O   O341      1.0  0.89625  0.70863  0.67421  1.0000
  O   O342      1.0  0.81238  0.60374  0.60755  1.0000
  N   N217      1.0  0.64190  0.75035  0.72576  1.0000
  N   N218      1.0  0.74965  0.89155  0.79243  1.0000
  N   N219      1.0  0.60845  0.85810  0.65909  1.0000
  N   N220      1.0  0.75035  0.64190  0.67424  1.0000
  N   N221      1.0  0.89155  0.74965  0.60757  1.0000
  N   N222      1.0  0.85810  0.60845  0.74091  1.0000
  H   H1729     1.0  0.62800  0.73543  0.70635  1.0000
  H   H1730     1.0  0.76457  0.89257  0.77302  1.0000
  H   H1731     1.0  0.60743  0.87200  0.63968  1.0000
  H   H1732     1.0  0.73543  0.62800  0.69365  1.0000
  H   H1733     1.0  0.89257  0.76457  0.62698  1.0000
  H   H1734     1.0  0.87200  0.60743  0.76032  1.0000
  H   H1735     1.0  0.66059  0.74650  0.72875  1.0000
  H   H1736     1.0  0.75350  0.91409  0.79541  1.0000
  H   H1737     1.0  0.58591  0.83941  0.66208  1.0000
  H   H1738     1.0  0.74650  0.66059  0.67125  1.0000
  H   H1739     1.0  0.91409  0.75350  0.60459  1.0000
  H   H1740     1.0  0.83941  0.58591  0.73792  1.0000
  C   C1243     1.0  0.72040  0.80770  0.75760  1.0000
  C   C1244     1.0  0.69230  0.91270  0.62427  1.0000
  C   C1245     1.0  0.58730  0.77960  0.69093  1.0000
  C   C1246     1.0  0.80770  0.72040  0.64240  1.0000
  C   C1247     1.0  0.91270  0.69230  0.77573  1.0000
  C   C1248     1.0  0.77960  0.58730  0.70907  1.0000
  C   C1249     1.0  0.71480  0.79715  0.79770  1.0000
  C   C1250     1.0  0.70285  0.91765  0.66437  1.0000
  C   C1251     1.0  0.58235  0.78520  0.73103  1.0000
  C   C1252     1.0  0.79715  0.71480  0.60230  1.0000
  C   C1253     1.0  0.91765  0.70285  0.73563  1.0000
  C   C1254     1.0  0.78520  0.58235  0.66897  1.0000
  C   C1255     1.0  0.73180  0.77985  0.61314  1.0000
  C   C1256     1.0  0.72015  0.95195  0.67981  1.0000
  C   C1257     1.0  0.54805  0.76820  0.74647  1.0000
  C   C1258     1.0  0.77985  0.73180  0.78686  1.0000
  C   C1259     1.0  0.95195  0.72015  0.72019  1.0000
  C   C1260     1.0  0.76820  0.54805  0.65353  1.0000
  H   H1741     1.0  0.72806  0.77308  0.64002  1.0000
  H   H1742     1.0  0.72692  0.95498  0.70669  1.0000
  H   H1743     1.0  0.54502  0.77194  0.77336  1.0000
  H   H1744     1.0  0.77308  0.72806  0.75998  1.0000
  H   H1745     1.0  0.95498  0.72692  0.69331  1.0000
  H   H1746     1.0  0.77194  0.54502  0.62664  1.0000
  C   C1261     1.0  0.75405  0.77195  0.79124  1.0000
  C   C1262     1.0  0.72805  0.98210  0.65791  1.0000
  C   C1263     1.0  0.51790  0.74595  0.72457  1.0000
  C   C1264     1.0  0.77195  0.75405  0.60876  1.0000
  C   C1265     1.0  0.98210  0.72805  0.74209  1.0000
  C   C1266     1.0  0.74595  0.51790  0.67543  1.0000
  C   C1267     1.0  0.75860  0.78175  0.75170  1.0000
  C   C1268     1.0  0.71825  0.97685  0.61837  1.0000
  C   C1269     1.0  0.52315  0.74140  0.68503  1.0000
  C   C1270     1.0  0.78175  0.75860  0.64830  1.0000
  C   C1271     1.0  0.97685  0.71825  0.78163  1.0000
  C   C1272     1.0  0.74140  0.52315  0.71497  1.0000
  H   H1747     1.0  0.77322  0.77633  0.73565  1.0000
  H   H1748     1.0  0.72367  0.99688  0.60232  1.0000
  H   H1749     1.0  0.50312  0.72678  0.66899  1.0000
  H   H1750     1.0  0.77633  0.77322  0.66435  1.0000
  H   H1751     1.0  0.99688  0.72366  0.79768  1.0000
  H   H1752     1.0  0.72678  0.50312  0.73101  1.0000
  C   C1273     1.0  0.74215  0.79920  0.73538  1.0000
  C   C1274     1.0  0.70080  0.94295  0.60205  1.0000
  C   C1275     1.0  0.55705  0.75785  0.66871  1.0000
  C   C1276     1.0  0.79920  0.74215  0.66462  1.0000
  C   C1277     1.0  0.94295  0.70080  0.79795  1.0000
  C   C1278     1.0  0.75785  0.55705  0.73129  1.0000
  H   H1753     1.0  0.74582  0.80549  0.70837  1.0000
  H   H1754     1.0  0.69451  0.94033  0.77504  1.0000
  H   H1755     1.0  0.55967  0.75418  0.64170  1.0000
  H   H1756     1.0  0.80549  0.74582  0.69163  1.0000
  H   H1757     1.0  0.94033  0.69451  0.62496  1.0000
  H   H1758     1.0  0.75418  0.55967  0.75830  1.0000
  C   C1279     1.0  0.69100  0.80295  0.62468  1.0000
  C   C1280     1.0  0.69705  0.88805  0.69135  1.0000
  C   C1281     1.0  0.61195  0.80900  0.75801  1.0000
  C   C1282     1.0  0.80295  0.69100  0.77532  1.0000
  C   C1283     1.0  0.88805  0.69705  0.70865  1.0000
  C   C1284     1.0  0.80900  0.61195  0.64199  1.0000
  N   N223      1.0  0.66995  0.70745  0.75580  1.0000
  N   N224      1.0  0.79255  0.96250  0.62247  1.0000
  N   N225      1.0  0.53750  0.83005  0.68913  1.0000
  N   N226      1.0  0.70745  0.66995  0.64420  1.0000
  N   N227      1.0  0.96250  0.79255  0.77753  1.0000
  N   N228      1.0  0.83005  0.53750  0.71087  1.0000
  H   H1759     1.0  0.67166  0.72635  0.74221  1.0000
  H   H1760     1.0  0.77365  0.94531  0.60887  1.0000
  H   H1761     1.0  0.55469  0.82834  0.67554  1.0000
  H   H1762     1.0  0.72635  0.67166  0.65779  1.0000
  H   H1763     1.0  0.94531  0.77365  0.79113  1.0000
  H   H1764     1.0  0.82834  0.55469  0.72446  1.0000
  H   H1765     1.0  0.69199  0.71426  0.76564  1.0000
  H   H1766     1.0  0.78574  0.97773  0.63230  1.0000
  H   H1767     1.0  0.52227  0.80801  0.69897  1.0000
  H   H1768     1.0  0.71426  0.69199  0.63437  1.0000
  H   H1769     1.0  0.97773  0.78574  0.76770  1.0000
  H   H1770     1.0  0.80801  0.52227  0.70103  1.0000
  C   C1285     1.0  0.62105  0.73795  0.76182  1.0000
  C   C1286     1.0  0.76205  0.88310  0.62849  1.0000
  C   C1287     1.0  0.61690  0.87895  0.69515  1.0000
  C   C1288     1.0  0.73795  0.62105  0.63818  1.0000
  C   C1289     1.0  0.88310  0.76205  0.77151  1.0000
  C   C1290     1.0  0.87895  0.61690  0.70485  1.0000
  H   H1771     1.0  0.59871  0.73858  0.75789  1.0000
  H   H1772     1.0  0.76142  0.86012  0.62456  1.0000
  H   H1773     1.0  0.63988  0.90129  0.69123  1.0000
  H   H1774     1.0  0.73858  0.59871  0.64211  1.0000
  H   H1775     1.0  0.86012  0.76142  0.77544  1.0000
  H   H1776     1.0  0.90129  0.63988  0.70877  1.0000
  H   H1777     1.0  0.63460  0.75517  0.78295  1.0000
  H   H1778     1.0  0.74483  0.87943  0.64961  1.0000
  H   H1779     1.0  0.62056  0.86540  0.71628  1.0000
  H   H1780     1.0  0.75517  0.63460  0.61705  1.0000
  H   H1781     1.0  0.87943  0.74483  0.75039  1.0000
  H   H1782     1.0  0.86540  0.62056  0.68372  1.0000
  C   C1291     1.0  0.61120  0.70095  0.77604  1.0000
  C   C1292     1.0  0.79905  0.91025  0.64271  1.0000
  C   C1293     1.0  0.58975  0.88880  0.70937  1.0000
  C   C1294     1.0  0.70095  0.61120  0.62396  1.0000
  C   C1295     1.0  0.91025  0.79905  0.75729  1.0000
  C   C1296     1.0  0.88880  0.58975  0.69063  1.0000
  H   H1783     1.0  0.59974  0.68356  0.75445  1.0000
  H   H1784     1.0  0.81644  0.91619  0.62112  1.0000
  H   H1785     1.0  0.58381  0.90026  0.68778  1.0000
  H   H1786     1.0  0.68356  0.59974  0.64555  1.0000
  H   H1787     1.0  0.91619  0.81644  0.77888  1.0000
  H   H1788     1.0  0.90026  0.58381  0.71222  1.0000
  H   H1789     1.0  0.59394  0.69392  0.79793  1.0000
  H   H1790     1.0  0.80608  0.90002  0.66460  1.0000
  H   H1791     1.0  0.59998  0.90606  0.73127  1.0000
  H   H1792     1.0  0.69392  0.59394  0.60207  1.0000
  H   H1793     1.0  0.90002  0.80608  0.73540  1.0000
  H   H1794     1.0  0.90606  0.59998  0.66873  1.0000
  C   C1297     1.0  0.64495  0.70020  0.79020  1.0000
  C   C1298     1.0  0.79980  0.94475  0.65687  1.0000
  C   C1299     1.0  0.55525  0.85505  0.72353  1.0000
  C   C1300     1.0  0.70020  0.64495  0.60980  1.0000
  C   C1301     1.0  0.94475  0.79980  0.74313  1.0000
  C   C1302     1.0  0.85505  0.55525  0.67647  1.0000
  H   H1795     1.0  0.65726  0.71856  0.61072  1.0000
  H   H1796     1.0  0.78144  0.93871  0.67738  1.0000
  H   H1797     1.0  0.56129  0.84274  0.74405  1.0000
  H   H1798     1.0  0.71856  0.65726  0.78928  1.0000
  H   H1799     1.0  0.93871  0.78144  0.72262  1.0000
  H   H1800     1.0  0.84274  0.56129  0.65595  1.0000
  H   H1801     1.0  0.63794  0.67661  0.60169  1.0000
  H   H1802     1.0  0.82339  0.96133  0.66836  1.0000
  H   H1803     1.0  0.53867  0.86206  0.73502  1.0000
  H   H1804     1.0  0.67661  0.63794  0.79831  1.0000
  H   H1805     1.0  0.96133  0.82339  0.73164  1.0000
  H   H1806     1.0  0.86206  0.53867  0.66498  1.0000
  C   C1303     1.0  0.66125  0.67975  0.72900  1.0000
  C   C1304     1.0  0.82025  0.98150  0.79567  1.0000
  C   C1305     1.0  0.51850  0.83875  0.66233  1.0000
  C   C1306     1.0  0.67975  0.66125  0.67100  1.0000
  C   C1307     1.0  0.98150  0.82025  0.60433  1.0000
  C   C1308     1.0  0.83875  0.51850  0.73767  1.0000
  H   H1807     1.0  0.63879  0.67390  0.71541  1.0000
  H   H1808     1.0  0.82610  0.96490  0.78208  1.0000
  H   H1809     1.0  0.53510  0.86121  0.64874  1.0000
  H   H1810     1.0  0.67390  0.63879  0.68459  1.0000
  H   H1811     1.0  0.96490  0.82610  0.61792  1.0000
  H   H1812     1.0  0.86121  0.53510  0.75126  1.0000
  H   H1813     1.0  0.65740  0.65820  0.74341  1.0000
  H   H1814     1.0  0.84180  0.99920  0.61007  1.0000
  H   H1815     1.0  0.50080  0.84260  0.67674  1.0000
  H   H1816     1.0  0.65820  0.65740  0.65659  1.0000
  H   H1817     1.0  0.99920  0.84180  0.78993  1.0000
  H   H1818     1.0  0.84260  0.50080  0.72326  1.0000
  C   C1309     1.0  0.68975  0.68975  0.70000  1.0000
  C   C1310     1.0  0.81025  0.50000  0.76667  1.0000
  C   C1311     1.0  0.50000  0.81025  0.63333  1.0000
  H   H1819     1.0  0.69441  0.71192  0.68651  1.0000
  H   H1820     1.0  0.78808  0.98249  0.75317  1.0000
  H   H1821     1.0  0.51751  0.80559  0.61984  1.0000
  H   H1822     1.0  0.71192  0.69441  0.71349  1.0000
  H   H1823     1.0  0.98249  0.78808  0.64683  1.0000
  H   H1824     1.0  0.80559  0.51751  0.78016  1.0000
  Zn  Zn115     1.0  0.66347  0.80299  0.90346  1.0000
  Zn  Zn116     1.0  0.69701  0.86048  0.97013  1.0000
  Zn  Zn117     1.0  0.63951  0.83653  0.83680  1.0000
  Zn  Zn118     1.0  0.80299  0.66347  0.89654  1.0000
  Zn  Zn119     1.0  0.86048  0.69701  0.82987  1.0000
  Zn  Zn120     1.0  0.83652  0.63951  0.96320  1.0000
  O   O343      1.0  0.70666  0.82560  0.94008  1.0000
  O   O344      1.0  0.67441  0.88106  0.80675  1.0000
  O   O345      1.0  0.61894  0.79334  0.87341  1.0000
  O   O346      1.0  0.82560  0.70666  0.85992  1.0000
  O   O347      1.0  0.88106  0.67441  0.99325  1.0000
  O   O348      1.0  0.79334  0.61894  0.92659  1.0000
  O   O349      1.0  0.67541  0.81877  0.81196  1.0000
  O   O350      1.0  0.68122  0.85664  0.87863  1.0000
  O   O351      1.0  0.64336  0.82459  0.94529  1.0000
  O   O352      1.0  0.81877  0.67541  0.98804  1.0000
  O   O353      1.0  0.85663  0.68122  0.92137  1.0000
  O   O354      1.0  0.82459  0.64336  0.85471  1.0000
  O   O355      1.0  0.68762  0.79136  0.85912  1.0000
  O   O356      1.0  0.70863  0.89626  0.92579  1.0000
  O   O357      1.0  0.60374  0.81238  0.99245  1.0000
  O   O358      1.0  0.79136  0.68762  0.94088  1.0000
  O   O359      1.0  0.89625  0.70863  0.87421  1.0000
  O   O360      1.0  0.81238  0.60374  0.80755  1.0000
  N   N229      1.0  0.64190  0.75035  0.92576  1.0000
  N   N230      1.0  0.74965  0.89155  0.99243  1.0000
  N   N231      1.0  0.60845  0.85810  0.85909  1.0000
  N   N232      1.0  0.75035  0.64190  0.87424  1.0000
  N   N233      1.0  0.89155  0.74965  0.80757  1.0000
  N   N234      1.0  0.85810  0.60845  0.94091  1.0000
  H   H1825     1.0  0.62800  0.73543  0.90635  1.0000
  H   H1826     1.0  0.76457  0.89257  0.97302  1.0000
  H   H1827     1.0  0.60743  0.87200  0.83968  1.0000
  H   H1828     1.0  0.73543  0.62800  0.89365  1.0000
  H   H1829     1.0  0.89257  0.76457  0.82698  1.0000
  H   H1830     1.0  0.87200  0.60743  0.96032  1.0000
  H   H1831     1.0  0.66059  0.74650  0.92875  1.0000
  H   H1832     1.0  0.75350  0.91409  0.99541  1.0000
  H   H1833     1.0  0.58591  0.83941  0.86208  1.0000
  H   H1834     1.0  0.74650  0.66059  0.87125  1.0000
  H   H1835     1.0  0.91409  0.75350  0.80459  1.0000
  H   H1836     1.0  0.83941  0.58591  0.93792  1.0000
  C   C1312     1.0  0.72040  0.80770  0.95760  1.0000
  C   C1313     1.0  0.69230  0.91270  0.82427  1.0000
  C   C1314     1.0  0.58730  0.77960  0.89093  1.0000
  C   C1315     1.0  0.80770  0.72040  0.84240  1.0000
  C   C1316     1.0  0.91270  0.69230  0.97573  1.0000
  C   C1317     1.0  0.77960  0.58730  0.90907  1.0000
  C   C1318     1.0  0.71480  0.79715  0.99770  1.0000
  C   C1319     1.0  0.70285  0.91765  0.86437  1.0000
  C   C1320     1.0  0.58235  0.78520  0.93103  1.0000
  C   C1321     1.0  0.79715  0.71480  0.80230  1.0000
  C   C1322     1.0  0.91765  0.70285  0.93563  1.0000
  C   C1323     1.0  0.78520  0.58235  0.86897  1.0000
  C   C1324     1.0  0.73180  0.77985  0.81314  1.0000
  C   C1325     1.0  0.72015  0.95195  0.87981  1.0000
  C   C1326     1.0  0.54805  0.76820  0.94647  1.0000
  C   C1327     1.0  0.77985  0.73180  0.98686  1.0000
  C   C1328     1.0  0.95195  0.72015  0.92019  1.0000
  C   C1329     1.0  0.76820  0.54805  0.85353  1.0000
  H   H1837     1.0  0.72806  0.77308  0.84002  1.0000
  H   H1838     1.0  0.72692  0.95498  0.90669  1.0000
  H   H1839     1.0  0.54502  0.77194  0.97336  1.0000
  H   H1840     1.0  0.77308  0.72806  0.95998  1.0000
  H   H1841     1.0  0.95498  0.72692  0.89331  1.0000
  H   H1842     1.0  0.77194  0.54502  0.82664  1.0000
  C   C1330     1.0  0.75405  0.77195  0.99124  1.0000
  C   C1331     1.0  0.72805  0.98210  0.85791  1.0000
  C   C1332     1.0  0.51790  0.74595  0.92457  1.0000
  C   C1333     1.0  0.77195  0.75405  0.80876  1.0000
  C   C1334     1.0  0.98210  0.72805  0.94209  1.0000
  C   C1335     1.0  0.74595  0.51790  0.87543  1.0000
  C   C1336     1.0  0.75860  0.78175  0.95170  1.0000
  C   C1337     1.0  0.71825  0.97685  0.81837  1.0000
  C   C1338     1.0  0.52315  0.74140  0.88503  1.0000
  C   C1339     1.0  0.78175  0.75860  0.84830  1.0000
  C   C1340     1.0  0.97685  0.71825  0.98163  1.0000
  C   C1341     1.0  0.74140  0.52315  0.91497  1.0000
  H   H1843     1.0  0.77322  0.77633  0.93565  1.0000
  H   H1844     1.0  0.72367  0.99688  0.80232  1.0000
  H   H1845     1.0  0.50312  0.72678  0.86899  1.0000
  H   H1846     1.0  0.77633  0.77322  0.86435  1.0000
  H   H1847     1.0  0.99688  0.72366  0.99768  1.0000
  H   H1848     1.0  0.72678  0.50312  0.93101  1.0000
  C   C1342     1.0  0.74215  0.79920  0.93538  1.0000
  C   C1343     1.0  0.70080  0.94295  0.80205  1.0000
  C   C1344     1.0  0.55705  0.75785  0.86871  1.0000
  C   C1345     1.0  0.79920  0.74215  0.86462  1.0000
  C   C1346     1.0  0.94295  0.70080  0.99795  1.0000
  C   C1347     1.0  0.75785  0.55705  0.93129  1.0000
  H   H1849     1.0  0.74582  0.80549  0.90837  1.0000
  H   H1850     1.0  0.69451  0.94033  0.97504  1.0000
  H   H1851     1.0  0.55967  0.75418  0.84170  1.0000
  H   H1852     1.0  0.80549  0.74582  0.89163  1.0000
  H   H1853     1.0  0.94033  0.69451  0.82496  1.0000
  H   H1854     1.0  0.75418  0.55967  0.95830  1.0000
  C   C1348     1.0  0.69100  0.80295  0.82468  1.0000
  C   C1349     1.0  0.69705  0.88805  0.89135  1.0000
  C   C1350     1.0  0.61195  0.80900  0.95801  1.0000
  C   C1351     1.0  0.80295  0.69100  0.97532  1.0000
  C   C1352     1.0  0.88805  0.69705  0.90865  1.0000
  C   C1353     1.0  0.80900  0.61195  0.84199  1.0000
  N   N235      1.0  0.66995  0.70745  0.95580  1.0000
  N   N236      1.0  0.79255  0.96250  0.82247  1.0000
  N   N237      1.0  0.53750  0.83005  0.88913  1.0000
  N   N238      1.0  0.70745  0.66995  0.84420  1.0000
  N   N239      1.0  0.96250  0.79255  0.97753  1.0000
  N   N240      1.0  0.83005  0.53750  0.91087  1.0000
  H   H1855     1.0  0.67166  0.72635  0.94221  1.0000
  H   H1856     1.0  0.77365  0.94531  0.80887  1.0000
  H   H1857     1.0  0.55469  0.82834  0.87554  1.0000
  H   H1858     1.0  0.72635  0.67166  0.85779  1.0000
  H   H1859     1.0  0.94531  0.77365  0.99113  1.0000
  H   H1860     1.0  0.82834  0.55469  0.92446  1.0000
  H   H1861     1.0  0.69199  0.71426  0.96564  1.0000
  H   H1862     1.0  0.78574  0.97773  0.83230  1.0000
  H   H1863     1.0  0.52227  0.80801  0.89897  1.0000
  H   H1864     1.0  0.71426  0.69199  0.83437  1.0000
  H   H1865     1.0  0.97773  0.78574  0.96770  1.0000
  H   H1866     1.0  0.80801  0.52227  0.90103  1.0000
  C   C1354     1.0  0.62105  0.73795  0.96182  1.0000
  C   C1355     1.0  0.76205  0.88310  0.82849  1.0000
  C   C1356     1.0  0.61690  0.87895  0.89515  1.0000
  C   C1357     1.0  0.73795  0.62105  0.83818  1.0000
  C   C1358     1.0  0.88310  0.76205  0.97151  1.0000
  C   C1359     1.0  0.87895  0.61690  0.90485  1.0000
  H   H1867     1.0  0.59871  0.73858  0.95789  1.0000
  H   H1868     1.0  0.76142  0.86012  0.82456  1.0000
  H   H1869     1.0  0.63988  0.90129  0.89123  1.0000
  H   H1870     1.0  0.73858  0.59871  0.84211  1.0000
  H   H1871     1.0  0.86012  0.76142  0.97544  1.0000
  H   H1872     1.0  0.90129  0.63988  0.90877  1.0000
  H   H1873     1.0  0.63460  0.75517  0.98295  1.0000
  H   H1874     1.0  0.74483  0.87943  0.84961  1.0000
  H   H1875     1.0  0.62056  0.86540  0.91628  1.0000
  H   H1876     1.0  0.75517  0.63460  0.81705  1.0000
  H   H1877     1.0  0.87943  0.74483  0.95039  1.0000
  H   H1878     1.0  0.86540  0.62056  0.88372  1.0000
  C   C1360     1.0  0.61120  0.70095  0.97604  1.0000
  C   C1361     1.0  0.79905  0.91025  0.84271  1.0000
  C   C1362     1.0  0.58975  0.88880  0.90937  1.0000
  C   C1363     1.0  0.70095  0.61120  0.82396  1.0000
  C   C1364     1.0  0.91025  0.79905  0.95729  1.0000
  C   C1365     1.0  0.88880  0.58975  0.89063  1.0000
  H   H1879     1.0  0.59974  0.68356  0.95445  1.0000
  H   H1880     1.0  0.81644  0.91619  0.82112  1.0000
  H   H1881     1.0  0.58381  0.90026  0.88778  1.0000
  H   H1882     1.0  0.68356  0.59974  0.84555  1.0000
  H   H1883     1.0  0.91619  0.81644  0.97888  1.0000
  H   H1884     1.0  0.90026  0.58381  0.91222  1.0000
  H   H1885     1.0  0.59394  0.69392  0.99793  1.0000
  H   H1886     1.0  0.80608  0.90002  0.86460  1.0000
  H   H1887     1.0  0.59998  0.90606  0.93127  1.0000
  H   H1888     1.0  0.69392  0.59394  0.80207  1.0000
  H   H1889     1.0  0.90002  0.80608  0.93540  1.0000
  H   H1890     1.0  0.90606  0.59998  0.86873  1.0000
  C   C1366     1.0  0.64495  0.70020  0.99020  1.0000
  C   C1367     1.0  0.79980  0.94475  0.85687  1.0000
  C   C1368     1.0  0.55525  0.85505  0.92353  1.0000
  C   C1369     1.0  0.70020  0.64495  0.80980  1.0000
  C   C1370     1.0  0.94475  0.79980  0.94313  1.0000
  C   C1371     1.0  0.85505  0.55525  0.87647  1.0000
  H   H1891     1.0  0.65726  0.71856  0.81072  1.0000
  H   H1892     1.0  0.78144  0.93871  0.87738  1.0000
  H   H1893     1.0  0.56129  0.84274  0.94405  1.0000
  H   H1894     1.0  0.71856  0.65726  0.98928  1.0000
  H   H1895     1.0  0.93871  0.78144  0.92262  1.0000
  H   H1896     1.0  0.84274  0.56129  0.85595  1.0000
  H   H1897     1.0  0.63794  0.67661  0.80169  1.0000
  H   H1898     1.0  0.82339  0.96133  0.86836  1.0000
  H   H1899     1.0  0.53867  0.86206  0.93502  1.0000
  H   H1900     1.0  0.67661  0.63794  0.99831  1.0000
  H   H1901     1.0  0.96133  0.82339  0.93164  1.0000
  H   H1902     1.0  0.86206  0.53867  0.86498  1.0000
  C   C1372     1.0  0.66125  0.67975  0.92900  1.0000
  C   C1373     1.0  0.82025  0.98150  0.99567  1.0000
  C   C1374     1.0  0.51850  0.83875  0.86233  1.0000
  C   C1375     1.0  0.67975  0.66125  0.87100  1.0000
  C   C1376     1.0  0.98150  0.82025  0.80433  1.0000
  C   C1377     1.0  0.83875  0.51850  0.93767  1.0000
  H   H1903     1.0  0.63879  0.67390  0.91541  1.0000
  H   H1904     1.0  0.82610  0.96490  0.98208  1.0000
  H   H1905     1.0  0.53510  0.86121  0.84874  1.0000
  H   H1906     1.0  0.67390  0.63879  0.88459  1.0000
  H   H1907     1.0  0.96490  0.82610  0.81792  1.0000
  H   H1908     1.0  0.86121  0.53510  0.95126  1.0000
  H   H1909     1.0  0.65740  0.65820  0.94341  1.0000
  H   H1910     1.0  0.84180  0.99920  0.81007  1.0000
  H   H1911     1.0  0.50080  0.84260  0.87674  1.0000
  H   H1912     1.0  0.65820  0.65740  0.85659  1.0000
  H   H1913     1.0  0.99920  0.84180  0.98993  1.0000
  H   H1914     1.0  0.84260  0.50080  0.92326  1.0000
  C   C1378     1.0  0.68975  0.68975  0.90000  1.0000
  C   C1379     1.0  0.81025  0.50000  0.96667  1.0000
  C   C1380     1.0  0.50000  0.81025  0.83333  1.0000
  H   H1915     1.0  0.69441  0.71192  0.88651  1.0000
  H   H1916     1.0  0.78808  0.98249  0.95317  1.0000
  H   H1917     1.0  0.51751  0.80559  0.81984  1.0000
  H   H1918     1.0  0.71192  0.69441  0.91349  1.0000
  H   H1919     1.0  0.98249  0.78808  0.84683  1.0000
  H   H1920     1.0  0.80559  0.51751  0.98016  1.0000
